<?xml version='1.0' encoding='UTF-8'?>
<edges>
  <edge id="-109520" from="-105210" to="-105218" numLanes="2" width="3.5" shape="-948.437483,409.101894 -946.761136,401.599080 -946.712962,401.336925 -946.684879,401.071864 -944.298374,365.754706 -944.294361,365.685004 -942.107242,319.697152 -941.836533,314.088937 -941.230115,301.280618 -941.229471,301.266399 -940.527239,285.037458 -939.576367,263.230595 "/>
  <edge id="-109521" from="-105208" to="-105210" numLanes="2" width="3.5" shape="-886.127633,441.531842 -885.937904,442.829425 -885.849692,445.146311 -885.999030,447.359626 -886.321704,449.193638 -887.070545,450.604685 -888.154494,452.172889 -889.631063,453.784316 -891.324253,455.186082 -893.536682,456.598558 -895.890514,457.764618 -898.647581,458.766664 -901.492916,459.442737 -904.717735,459.819453 -907.968215,459.822824 -911.067189,459.472317 -914.093516,458.771312 -916.767691,457.795956 -919.364728,456.533811 -921.647269,455.136129 -923.777574,453.536682 -927.038683,450.534008 -929.978678,447.032838 -938.539570,436.505962 -942.749163,430.010816 -946.089562,423.263701 "/>
  <edge id="-109522" from="290780567" to="-105210" numLanes="2" width="3.5" shape="-1046.466728,530.332437 -1025.202400,518.174947 -1024.934026,518.004899 -1024.682178,517.811214 -1024.448931,517.595490 -1002.949588,495.819401 -1002.849034,495.713203 -977.836955,468.166700 -977.622909,467.906883 -966.407292,452.874455 -966.227681,452.609204 -966.073073,452.328643 -956.201553,432.297660 -956.026911,431.875953 -954.096402,426.191250 -953.924792,425.684986 "/>
  <edge id="-109523" from="-105209" to="290780609" numLanes="2" width="3.5" shape="-879.113291,437.523054 -845.850647,448.717418 -845.615011,448.787608 -828.392864,453.265503 -828.298246,453.288704 -804.168557,458.850517 "/>
  <edge id="-109578" from="-105350" to="-105342" numLanes="2" width="3.5" shape="-905.851162,-269.004590 -906.456049,-265.569099 -908.424881,-254.357832 -913.395900,-226.075719 -913.436658,-225.760423 -916.592651,-187.880028 -919.309346,-167.629025 -919.323255,-167.509888 -920.801631,-152.638132 -923.781935,-125.919161 -923.803361,-125.563100 -924.373191,-63.107349 -924.366172,-62.851584 -922.224039,-29.424268 -922.221716,-27.241071 -923.077317,-1.291555 -923.078849,-1.227064 -923.243831,10.128028 -923.236872,10.405242 -921.202808,41.789294 "/>
  <edge id="-109579" from="-105375" to="-105369" numLanes="2" width="3.5" shape="-933.419516,41.110955 -932.361699,5.996235 -931.974911,-4.454206 -931.972566,-4.565004 -931.852645,-27.064865 -931.852595,-27.082934 -931.846603,-62.946404 -931.644724,-68.757958 -929.397327,-134.976439 -929.110530,-137.231921 -929.098325,-137.341730 -919.077395,-242.610195 -917.808977,-254.237035 "/>
  <edge id="-124983" from="290782730" to="-105825" numLanes="2" width="3.5" shape="-1391.133880,-604.349888 -1421.805430,-608.916914 -1422.122723,-608.949466 -1422.441662,-608.952997 -1434.784419,-608.526881 "/>
  <edge id="-124984" from="-105825" to="1135292449" numLanes="2" width="3.5" shape="-1452.762288,-618.097446 -1454.862031,-619.444751 -1456.404983,-622.181994 "/>
  <edge id="-124985" from="-105825" to="-105834" numLanes="2" width="3.5" shape="-1456.669719,-611.887094 -1467.198474,-613.894283 -1467.361584,-613.921402 -1478.439567,-615.495318 -1488.488321,-616.923308 -1488.642355,-616.941724 -1527.883887,-620.753564 -1527.930192,-620.757752 -1545.757936,-622.250735 -1546.077605,-622.262835 -1546.397042,-622.245698 -1558.335134,-621.056187 -1558.687915,-621.002759 -1559.033423,-620.913692 -1559.368067,-620.789910 -1559.688370,-620.632702 -1572.659994,-613.423430 -1572.972727,-613.227354 -1583.242931,-606.006808 -1583.510427,-605.798683 -1583.756538,-605.565661 -1583.978957,-605.309928 -1584.175598,-605.033880 -1589.567571,-596.631405 "/>
  <edge id="-124987" from="-105839" to="-105841" numLanes="3" width="3.5" shape="-1644.145501,-249.567324 -1645.886873,-214.383292 "/>
  <edge id="-124994" from="-106062" to="-106061" numLanes="2" width="3.5" shape="-1427.789589,183.665024 -1428.577752,184.056770 -1430.307930,184.248539 -1432.598068,184.173051 -1435.909385,183.373795 -1436.104604,183.332526 -1438.298367,182.933727 "/>
  <edge id="-125317" from="-106292" to="-106256" numLanes="2" width="3.5" shape="-1433.778991,13.668606 -1437.540517,14.352169 -1444.228186,13.678557 -1446.566688,11.708057 -1449.143167,8.056483 -1450.340876,4.998799 -1450.859818,-1.641433 "/>
  <edge id="-125318" from="-106286" to="-106261" numLanes="2" width="3.5" shape="-1412.589727,-158.216640 -1418.496077,-157.192443 -1424.156533,-156.946326 -1429.176058,-158.341954 "/>
  <edge id="-125319" from="-106260" to="-106287" numLanes="2" width="3.5" shape="-1429.443158,-131.032292 -1422.744660,-131.921438 -1417.533851,-129.386878 "/>
  <edge id="-125320" from="-106265" to="-106284" numLanes="2" width="3.5" shape="-1414.229784,-223.065531 -1412.996894,-223.493441 -1408.970835,-223.696746 -1405.119300,-222.605867 "/>
  <edge id="-125321" from="-106282" to="-106267" numLanes="2" width="3.5" shape="-1402.736304,-249.006969 -1402.025335,-249.259364 -1402.035235,-249.301424 -1403.285071,-249.007252 -1406.629159,-248.220158 -1410.226140,-248.472353 -1410.265008,-248.493035 "/>
  <edge id="-127995" from="-111189" to="-107438" numLanes="2" width="3.5" shape="-972.719090,-634.447076 -970.879679,-634.427830 -970.549677,-634.439956 -956.885362,-635.589394 -956.472435,-635.649085 -923.516530,-642.439388 -923.071272,-642.562248 -891.436783,-653.584279 -891.181232,-653.684723 -857.725017,-668.374733 -857.423697,-668.524713 -843.291008,-676.428855 -843.013968,-676.601224 -842.754184,-676.798642 -814.077336,-700.779644 -813.870517,-700.967107 -813.679294,-701.170454 -784.305181,-735.015713 -784.117250,-735.252129 -783.950400,-735.503866 -772.065971,-755.233310 -771.871625,-755.604563 -765.027994,-770.832673 -764.896709,-771.170605 -756.552605,-796.457037 -750.613032,-811.916658 "/>
  <edge id="-127996" from="-107438" to="-107440" numLanes="2" width="3.5" shape="-750.415325,-812.677260 -750.236515,-813.929793 -745.965559,-834.744504 "/>
  <edge id="-127997" from="-107440" to="-107450" numLanes="2" width="3.5" shape="-745.908670,-835.129295 -745.449561,-840.150096 -744.159504,-854.194918 -744.146638,-854.627469 -744.914537,-878.523650 -744.934130,-878.797673 -744.975155,-879.069316 -749.772124,-904.126980 -749.774740,-904.140503 -751.577566,-913.361174 -751.670918,-913.730559 -756.790189,-930.163601 -764.285961,-954.241029 -764.432462,-954.628966 -764.623816,-954.996854 -783.447725,-986.477871 -786.918793,-992.274261 "/>
  <edge id="-127998" from="-107450" to="-107463" numLanes="2" width="3.5" shape="-786.944825,-992.317037 -790.735987,-998.447235 -790.915848,-998.710459 -803.028072,-1014.810195 -841.814075,-1066.373536 -842.031869,-1066.635498 -842.274100,-1066.875044 -864.227502,-1086.566673 -873.841673,-1095.190144 -904.711457,-1122.886163 -904.992948,-1123.113580 -905.296417,-1123.310716 -913.036057,-1127.787264 -930.720851,-1137.999582 -930.946438,-1138.119098 -978.586147,-1161.174433 -978.898378,-1161.307266 -979.222004,-1161.409240 -1013.401597,-1170.383211 -1013.736158,-1170.453783 -1029.429868,-1172.970762 -1053.684308,-1178.467200 -1053.976232,-1178.520456 -1054.271619,-1178.548793 -1098.134324,-1180.885976 "/>
  <edge id="-127999" from="-107463" to="1231756279" numLanes="2" width="3.5" shape="-1098.447591,-1180.888628 -1106.839212,-1180.583842 "/>
  <edge id="-128098" from="-107584" to="290773478" numLanes="2" width="3.5" shape="-579.749617,-521.017645 -580.033907,-518.650158 -581.328499,-508.214042 -583.886716,-496.773875 -589.907626,-487.966250 -604.854971,-481.122380 "/>
  <edge id="-128100" from="-107582" to="1096665737" numLanes="2" width="3.5" shape="-558.522582,-590.404968 -558.332285,-590.236936 -558.077394,-590.032235 -557.804515,-589.852209 -557.516031,-589.698428 -557.214456,-589.572234 -537.309538,-582.315585 "/>
  <edge id="-128200" from="1138832887" to="290766253" numLanes="2" width="3.5" shape="509.373131,-293.786125 488.406691,-401.788309 "/>
  <edge id="-128746" from="290788152" to="1119054233" numLanes="2" width="3.5" shape="1432.729469,390.060675 1432.259725,389.468154 1432.222969,389.490872 1432.709831,390.278582 1434.060093,392.463212 1435.044147,395.405977 1435.318694,398.488784 1434.874646,401.586632 1433.841143,404.196253 1433.569801,404.881400 1433.609975,404.897310 1433.903769,404.351427 "/>
  <edge id="-128747" from="290979128" to="1119054351" numLanes="2" width="3.5" shape="1346.488385,366.373318 1346.143521,368.248503 1345.280628,370.271503 1344.003108,372.033275 1342.666209,373.191134 1341.842915,373.904171 1341.871204,373.936834 1342.547800,373.483871 "/>
  <edge id="-128748" from="1119054203" to="1119054231" numLanes="2" width="3.5" shape="1458.225412,404.023159 1456.536390,401.962646 1455.122089,399.216173 1454.307502,396.236858 1454.133087,392.888802 1454.702478,389.608265 1455.984539,386.539396 "/>
  <edge id="-128765" from="-108874" to="2782645198" numLanes="2" width="3.5" shape="1561.589585,401.032567 1556.192346,408.249108 1549.697262,413.126482 1542.173331,416.641356 1533.250331,417.835695 1533.240223,417.833597 "/>
  <edge id="-129233" from="-109579" to="-108874" numLanes="2" width="3.5" shape="1559.560435,379.876838 1562.625928,387.601528 1562.548416,398.201716 1561.128970,401.863899 "/>
  <edge id="-129234" from="290787695" to="-109579" numLanes="2" width="3.5" shape="1545.453164,371.735046 1548.668085,371.045701 1553.040709,371.836899 1556.211814,375.105029 1559.919966,380.554760 "/>
  <edge id="-129236" from="Custom318" to="-109593" numLanes="2" width="3.5" shape="-1572.029209,-981.304757 -1486.491907,-968.774779 -1486.232050,-968.746578 -1485.970814,-968.737848 -1467.403408,-968.811094 -1466.892313,-968.850651 -1447.708421,-971.760607 -1447.317866,-971.842867 -1446.939216,-971.969056 -1426.002005,-980.300936 -1425.675353,-980.450784 -1425.365790,-980.633338 -1425.076579,-980.846675 -1407.063559,-995.620186 "/>
  <edge id="-129238" from="-109605" to="Custom319" numLanes="2" width="3.5" shape="-1341.113477,-1161.339939 -1337.878083,-1171.055847 -1337.788925,-1171.372528 -1337.729896,-1171.696182 -1337.701517,-1172.023948 -1336.548922,-1201.297739 -1333.259444,-1220.199108 -1321.314881,-1246.035754 -1313.140229,-1259.523355 -1299.544637,-1274.204587 "/>
  <edge id="-129239" from="-109612" to="-109614" numLanes="2" width="3.5" shape="-1323.546520,-763.753878 -1328.985540,-758.339826 -1350.961013,-750.008573 "/>
  <edge id="-129240" from="290772099" to="-109612" numLanes="2" width="3.5" shape="-1317.568224,-770.116412 -1317.566031,-769.685440 -1323.542032,-763.758338 "/>
  <edge id="-129243" from="Custom320" to="-109594" numLanes="2" width="3.5" shape="-1608.838818,-758.392253 -1588.048982,-739.949706 -1587.821884,-739.764638 -1587.580104,-739.599210 -1570.251051,-728.778502 -1569.939987,-728.605597 -1569.612972,-728.465175 -1569.273388,-728.358688 -1552.161634,-723.934488 -1551.902280,-723.877831 -1551.639377,-723.840995 -1526.485250,-721.284816 -1526.478010,-721.284088 -1479.921406,-716.650747 -1479.908544,-716.649491 -1449.664031,-713.752277 -1449.384962,-713.736755 -1436.825691,-713.540523 -1436.500122,-713.550595 -1436.176900,-713.590889 -1423.288335,-715.810893 -1422.942772,-715.888600 -1422.606832,-716.000835 -1422.283955,-716.146449 -1409.920008,-722.493874 -1409.610494,-722.673328 -1409.320918,-722.883441 -1409.054304,-723.122020 -1399.869127,-732.228449 -1399.634961,-732.484864 -1399.427357,-732.763221 -1399.248357,-733.060780 -1393.638763,-743.528768 -1393.504175,-743.809182 -1393.395013,-744.100438 -1393.312141,-744.400234 -1393.256212,-744.706205 -1391.456000,-757.827459 -1391.427179,-758.143140 -1391.427037,-758.460134 -1391.455577,-758.775841 -1394.739605,-782.871762 "/>
  <edge id="-129244" from="-109597" to="Custom321" numLanes="2" width="3.5" shape="-1418.015595,-901.469733 -1421.398028,-907.438107 -1421.613388,-907.772314 -1421.865262,-908.079940 -1442.604543,-930.661017 -1442.866161,-930.917519 -1443.153160,-931.145266 -1465.777401,-947.243361 -1466.034093,-947.409610 -1466.304318,-947.552816 -1466.586013,-947.671886 -1488.426810,-955.798458 -1488.756085,-955.902790 -1489.094040,-955.974158 -1574.444485,-969.638835 "/>
  <edge id="-129249" from="-109706" to="-109689" numLanes="2" width="3.5" shape="-1472.477514,-652.858737 -1471.918856,-653.076157 -1471.725414,-653.158210 -1469.413948,-654.221631 -1469.146876,-654.358670 -1468.892529,-654.518090 -1466.614811,-656.085655 -1466.355509,-656.282490 -1466.115618,-656.502566 -1462.523392,-660.119813 -1462.328115,-660.333433 -1462.151155,-660.562457 -1459.201312,-664.725195 -1459.039706,-664.975136 -1458.899921,-665.237904 -1456.691945,-669.851491 -1456.575676,-670.123370 -1456.482772,-670.404093 -1455.082896,-675.321401 -1455.015828,-675.599762 -1454.971738,-675.882674 -1454.412796,-680.778050 -1454.392071,-681.060750 -1454.394291,-681.344201 -1454.632070,-686.259708 -1454.656958,-686.540031 -1454.704287,-686.817449 -1455.727595,-691.637557 -1455.797693,-691.912400 -1455.889817,-692.180665 -1457.676372,-696.768849 -1457.790881,-697.030759 -1457.926381,-697.282451 -1459.463529,-699.877859 "/>
  <edge id="-129250" from="-109690" to="-109692" numLanes="2" width="3.5" shape="-1477.920179,-710.619245 -1548.593094,-719.952721 -1548.954167,-719.981501 -1549.316281,-719.972808 -1565.602954,-718.736424 "/>
  <edge id="-129251" from="-109692" to="-109696" numLanes="2" width="3.5" shape="-1566.571671,-718.521844 -1573.871700,-715.772329 -1574.169567,-715.644084 -1574.454285,-715.488820 -1574.723411,-715.307869 -1581.600370,-710.205991 -1581.888716,-709.967135 -1582.149896,-709.698843 -1582.380920,-709.404186 -1582.579146,-709.086535 -1588.067619,-699.143982 -1588.280551,-698.681666 -1594.547216,-681.973878 "/>
  <edge id="-130725" from="-105834" to="-105835" numLanes="2" width="3.5" shape="-1589.706127,-596.395720 -1595.481449,-585.630257 "/>
  <edge id="-133013" from="1164709151" to="1138832887" numLanes="2" width="3.5" shape="512.479696,-253.107315 511.378065,-282.434476 "/>
  <edge id="-137516" from="-109696" to="-109710" numLanes="2" width="3.5" shape="-1594.631384,-679.768989 -1591.553236,-669.165390 "/>
  <edge id="-137532" from="-109710" to="-109709" numLanes="2" width="3.5" shape="-1590.901774,-667.925935 -1581.005763,-655.820470 "/>
  <edge id="26528302" from="290766966" to="1164709121" numLanes="2" width="3.5" shape="-20.547204,728.963365 -20.895872,736.628818 "/>
  <edge id="26528945" from="30341225" to="842907884" numLanes="3" width="3.5" shape="-533.186766,-531.748543 -428.469267,-518.263832 -428.197840,-518.236028 -338.407083,-511.390566 "/>
  <edge id="26529085" from="8237169937" to="1135292485" numLanes="2" width="3.5" shape="-1248.053275,-639.879168 -1234.709430,-641.361597 "/>
  <edge id="26529090" from="3754828709" to="1135292495" numLanes="2" width="3.5" shape="-1130.036239,-596.774490 -1135.345598,-594.319666 -1140.220395,-593.129311 -1150.045449,-594.317123 -1150.210083,-594.333090 -1170.695410,-595.832189 -1191.893451,-597.383444 -1192.226071,-597.391927 -1215.526047,-596.878034 -1215.718733,-596.868466 -1235.232543,-595.359391 -1235.564596,-595.317664 -1242.095968,-594.177438 "/>
  <edge id="26529818" from="290778352" to="2900413495" numLanes="2" width="3.5" shape="-1251.947415,584.646472 -1256.218412,582.720311 -1256.504541,582.606144 -1256.799600,582.517579 -1257.101304,582.455303 -1257.407315,582.419797 -1266.489120,581.769462 "/>
  <edge id="26529994" from="290780373" to="290780414" numLanes="2" width="3.5" shape="-556.971057,337.782027 -546.307599,340.302312 -536.895145,348.523083 -532.620299,361.489889 -533.375777,374.242911 -538.273230,387.245515 -548.416443,398.855069 "/>
  <edge id="26529997" from="290780506" to="290780512" numLanes="2" width="3.5" shape="-818.153186,516.772205 -819.348238,516.235702 -822.876281,511.039322 -824.503987,500.197067 -822.913404,492.482161 -815.232551,481.401194 "/>
  <edge id="26530044" from="290780679" to="290780697" numLanes="2" width="3.5" shape="-406.673219,242.096542 -403.602609,242.809890 -395.259373,245.778707 -388.913396,250.223983 -383.035608,257.539060 -380.195060,263.241539 -378.890935,270.228625 -379.375420,276.112648 "/>
  <edge id="26530062" from="-111982" to="290780949" numLanes="2" width="3.5" shape="-266.011360,104.754694 -263.211074,105.327773 -263.148574,105.339972 -258.745595,106.157878 -255.360327,108.914168 -246.951725,117.946426 -241.669932,124.141097 -236.555935,132.668906 -234.146902,137.514602 -232.219071,143.404865 -232.431393,146.408146 "/>
  <edge id="26530064" from="-105493" to="290781182" numLanes="2" width="3.5" shape="-103.050688,-141.554230 -92.082437,-142.378486 -64.907385,-127.419299 -61.242759,-121.175023 "/>
  <edge id="26530071" from="290781353" to="-105495" numLanes="2" width="3.5" shape="-49.028341,-159.426515 -59.108386,-158.621791 -83.776145,-171.797911 -87.662426,-177.559352 "/>
  <edge id="26530077" from="682380012" to="290780325" numLanes="2" width="3.5" shape="-93.494480,-378.932428 -93.352629,-376.580883 -93.800618,-372.951598 -94.896437,-369.470836 -96.622079,-366.248386 -98.892389,-363.409958 -101.643939,-361.041424 -104.914013,-359.163388 -108.478440,-357.939124 -112.194092,-357.428581 -115.943447,-357.646972 -118.833369,-358.384172 "/>
  <edge id="26530087" from="290781597" to="1096665923" numLanes="2" width="3.5" shape="-210.697512,-413.657504 -211.271271,-415.108919 -210.947413,-419.714071 -210.141119,-421.119988 "/>
  <edge id="26530093" from="290779478" to="290781731" numLanes="2" width="3.5" shape="-173.874408,-429.748706 -170.098465,-433.265258 -169.822537,-433.553289 -169.581172,-433.870845 -169.377505,-434.213801 -166.561763,-439.637192 -166.402461,-439.990616 -166.283223,-440.359490 -166.205510,-440.739287 -164.975269,-449.081215 -164.944624,-449.373685 -164.938639,-449.667694 -164.957355,-449.961168 -165.672859,-456.704294 -165.719455,-457.012162 -165.793228,-457.314669 -165.893595,-457.609424 -167.671715,-462.157460 "/>
  <edge id="26530162" from="290782301" to="290782531" numLanes="2" width="3.5" shape="-712.381694,-533.223949 -712.459660,-533.355482 -712.670475,-533.670827 -712.914178,-533.961506 -713.187906,-534.224104 -713.488446,-534.455538 -716.156976,-536.289032 "/>
  <edge id="26530400" from="1164709121" to="290785449" numLanes="2" width="3.5" shape="-21.665017,753.612313 -23.053181,784.305638 -23.327025,786.896002 "/>
  <edge id="26530567" from="Custom322" to="2459202504" numLanes="2" width="3.5" shape="1522.241178,-257.816426 1477.111915,-276.583914 1476.855009,-276.679137 1476.591441,-276.753973 1426.518450,-288.875114 1426.227241,-288.932655 1425.932204,-288.965314 1380.771861,-292.033132 1373.264859,-292.765865 1373.088196,-292.778605 1366.716077,-293.076314 1353.804075,-293.692643 1285.981293,-296.918293 1285.766465,-296.921908 1275.526444,-296.779833 "/>
  <edge id="26530935" from="682381972" to="290790163" numLanes="2" width="3.5" shape="552.966912,120.924686 553.129480,120.821554 567.510748,120.058194 "/>
  <edge id="26530949" from="290790218" to="290791653" numLanes="2" width="3.5" shape="593.528774,358.389620 584.420111,363.973774 584.154965,364.153518 583.907362,364.356752 583.679378,364.581772 580.687569,367.818050 577.269374,368.424486 574.646103,368.060321 "/>
  <edge id="26530956" from="682381699" to="8226531920" numLanes="2" width="3.5" shape="579.748177,401.348726 581.531846,399.621307 586.536255,398.334681 589.881797,398.068802 "/>
  <edge id="26530961" from="290790285" to="290790278" numLanes="2" width="3.5" shape="1214.478432,-258.576254 1214.441669,-258.570622 1201.950870,-257.324066 1194.069884,-258.834082 1189.503356,-261.222159 "/>
  <edge id="26530979" from="8189884899" to="290790412" numLanes="2" width="3.5" shape="-373.828529,952.405198 -378.343662,945.093875 -378.656198,936.957135 -377.068536,935.465824 "/>
  <edge id="26530985" from="1107904560" to="290790438" numLanes="2" width="3.5" shape="-521.558885,953.173678 -523.049496,950.690834 -524.521632,942.631587 -522.234425,933.730645 -517.582488,928.237312 -515.478371,927.466760 "/>
  <edge id="26530995" from="290790516" to="292369430" numLanes="2" width="3.5" shape="-552.001675,915.036051 -552.775410,923.739090 -552.789099,924.028305 -552.778836,924.317661 -552.056282,933.704144 -554.334833,943.987089 -557.283886,949.321469 "/>
  <edge id="26546942" from="290777214" to="1135292514" numLanes="2" width="3.5" shape="-934.505457,-552.291230 -959.073780,-555.489132 -959.103810,-555.492909 -962.874855,-555.950636 -977.361352,-557.731859 "/>
  <edge id="26547780" from="290977280" to="290789644" numLanes="2" width="3.5" shape="600.530978,550.994400 603.144402,552.677525 603.431861,552.843912 603.733798,552.982302 604.047493,553.091448 604.370122,553.170367 604.698779,553.218348 608.043429,553.545496 "/>
  <edge id="26547781" from="1119054271" to="1119054332" numLanes="1" width="3.5" shape="940.825615,511.071249 918.704526,514.495898 "/>
  <edge id="-26547781" to="1119054271" from="1119054332" numLanes="1" width="3.5" shape="918.704526,514.495898 940.825615,511.071249 "/>
  <edge id="26547798" from="1119054246" to="290977363" numLanes="2" width="3.5" shape="1373.802989,409.975282 1372.988840,410.143639 1347.443539,414.753180 1347.181469,414.810924 1346.924594,414.888576 1330.476516,420.557551 1330.184111,420.673274 1329.903274,420.814776 1329.636271,420.980913 1320.329697,427.369029 "/>
  <edge id="26547799" from="290789644" to="290764342" numLanes="2" width="3.5" shape="607.747990,553.623676 602.446696,556.268801 602.129143,556.448501 601.832025,556.660285 601.558569,556.901850 601.311747,557.170571 600.629688,557.995633 "/>
  <edge id="26547875" from="290977428" to="290979127" numLanes="2" width="3.5" shape="1228.253649,141.541673 1227.712351,142.085484 1227.738863,142.119604 1228.600066,141.450421 1230.053722,140.320882 1232.258720,139.344776 1234.565911,138.953527 "/>
  <edge id="26660702" from="290977401" to="292420154" numLanes="2" width="3.5" shape="1299.114286,298.093066 1299.608775,297.768865 1300.861882,297.380349 "/>
  <edge id="53540739" from="682381764" to="676396022" numLanes="2" width="3.5" shape="2.506279,560.446716 -3.920171,562.865603 -10.632391,561.371503 "/>
  <edge id="70652117" from="842907872" to="4185741388" numLanes="2" width="3.5" shape="-345.334103,-498.053345 -386.947726,-502.994158 -481.711571,-514.246077 -517.789169,-518.524043 -517.832235,-518.528610 -530.924751,-519.753406 "/>
  <edge id="-70652117" to="842907872" from="4185741388" numLanes="1" width="3.5" shape="-530.924751,-519.753406 -517.832235,-518.528610 -517.789169,-518.524043 -481.711571,-514.246077 -386.947726,-502.994158 -345.334103,-498.053345 "/>
  <edge id="94404060" from="1096665856" to="1096665943" numLanes="2" width="3.5" shape="-333.324862,-463.878569 -342.541223,-447.597323 -357.201392,-438.186536 "/>
  <edge id="94404062" from="290777234" to="1096665704" numLanes="2" width="3.5" shape="-885.547879,-504.775447 -882.943329,-505.787887 -879.387692,-506.199916 -875.458358,-505.772937 -872.382366,-503.729412 -869.314957,-498.564709 "/>
  <edge id="94404064" from="1096665893" to="291665113" numLanes="2" width="3.5" shape="-1221.326243,604.516988 -1220.007849,604.707471 -1217.679001,606.085925 -1216.543881,607.637142 "/>
  <edge id="95533538" from="682380003" to="682380006" numLanes="2" width="3.5" shape="-140.017092,-465.203421 -145.029555,-458.918855 -145.232912,-458.636096 -145.407159,-458.334527 -145.550571,-458.017132 -145.661727,-457.687056 -148.895846,-446.226993 -148.979597,-445.852938 -150.760581,-435.188900 -150.801511,-434.831752 -150.805590,-434.472289 -150.772776,-434.114304 -149.234154,-423.411853 -149.175270,-423.102077 -149.088744,-422.798857 -148.975279,-422.504655 -148.835796,-422.221859 -148.671427,-421.952765 -147.933828,-420.859201 "/>
  <edge id="95541587" from="290767740" to="6481264325" numLanes="2" width="3.5" shape="525.774637,-241.193600 516.399631,-243.050482 516.044370,-243.102079 515.685692,-243.117015 513.588631,-243.096694 "/>
  <edge id="95541588" from="1107904581" to="1107904704" numLanes="2" width="3.5" shape="-3.970795,595.175462 1.755995,592.552587 7.927101,593.861710 "/>
  <edge id="95541590" from="1107904630" to="1107904605" numLanes="2" width="3.5" shape="-1238.062336,651.122963 -1238.951958,651.020509 -1240.526531,650.165451 -1242.032470,649.266310 "/>
  <edge id="95541601" from="1107904566" to="1107904737" numLanes="2" width="3.5" shape="-1121.152861,566.331254 -1121.270190,566.230864 -1123.110675,564.160454 -1123.571134,562.760365 -1124.088515,559.424213 -1123.845667,556.303908 -1122.896294,553.314223 -1121.365406,550.714753 "/>
  <edge id="95541606" from="1107904767" to="1107904694" numLanes="2" width="3.5" shape="545.802887,-261.265394 544.076989,-262.847766 543.122304,-266.316455 544.155236,-269.768858 544.290853,-269.887728 "/>
  <edge id="96613479" from="1119054288" to="1119054298" numLanes="2" width="3.5" shape="1292.234529,275.448010 1291.506903,276.197324 1289.873315,277.093535 1288.517346,277.394409 "/>
  <edge id="96613480" from="1119054206" to="4908534567" numLanes="1" width="3.5" shape="926.809814,480.535544 928.694431,472.405187 927.841411,466.796103 925.636709,447.378302 920.117706,396.539120 912.604633,332.990823 907.400728,287.498495 906.138152,275.828606 896.433725,201.725046 896.644355,191.566360 900.108115,181.372738 905.608818,172.080411 912.162434,164.425772 917.867788,160.343771 926.340613,157.372398 1160.798415,186.099135 1184.160516,189.373242 "/>
  <edge id="-96613480" to="1119054206" from="4908534567" numLanes="1" width="3.5" shape="1184.160516,189.373242 1160.798415,186.099135 926.340613,157.372398 917.867788,160.343771 912.162434,164.425772 905.608818,172.080411 900.108115,181.372738 896.644355,191.566360 896.433725,201.725046 906.138152,275.828606 907.400728,287.498495 912.604633,332.990823 920.117706,396.539120 925.636709,447.378302 927.841411,466.796103 928.694431,472.405187 926.809814,480.535544 "/>
  <edge id="96613481" from="290977363" to="2902592834" numLanes="2" width="3.5" shape="1319.580811,426.593310 1325.445493,413.302592 1325.553970,413.025406 1332.382649,393.121120 1332.470374,392.822869 1332.531288,392.518011 1332.564909,392.208950 1332.570973,391.898124 1332.549432,391.587987 1331.523922,382.613326 "/>
  <edge id="96613482" from="290977363" to="1119054271" numLanes="1" width="3.5" shape="1304.551939,444.834090 1289.705466,459.239557 1268.495412,471.804917 1243.297498,480.140725 1105.464816,497.238861 952.526101,509.367815 "/>
  <edge id="-96613482" to="290977363" from="1119054271" numLanes="1" width="3.5" shape="952.526101,509.367815 1105.464816,497.238861 1243.297498,480.140725 1268.495412,471.804917 1289.705466,459.239557 1304.551939,444.834090 "/>
  <edge id="96613487" from="1119054271" to="1119054206" numLanes="2" width="3.5" shape="944.711975,502.352490 939.495452,497.246235 936.907248,494.253404 934.023197,490.408684 932.676184,488.359343 "/>
  <edge id="98426107" from="1138832895" to="1138832886" numLanes="2" width="3.5" shape="819.214534,-235.601688 818.549403,-239.947898 819.217966,-244.805108 820.869180,-247.585716 "/>
  <edge id="98426110" from="290767700" to="290977448" numLanes="2" width="3.5" shape="785.770079,-249.625417 787.271022,-246.777410 786.882948,-242.361428 785.729628,-240.375905 "/>
  <edge id="98426111" from="290790277" to="1138832966" numLanes="2" width="3.5" shape="1187.217071,-235.730839 1190.449650,-234.497845 1193.970475,-229.585877 1194.212233,-226.963992 "/>
  <edge id="98576175" from="290790518" to="1140435720" numLanes="2" width="3.5" shape="-211.807006,808.466937 -208.474016,811.207715 -206.777344,817.661673 "/>
  <edge id="98576176" from="292369412" to="290784482" numLanes="2" width="3.5" shape="-180.120933,805.520939 -183.429401,800.823762 -183.913126,796.157245 "/>
  <edge id="100770958" from="1164709158" to="1164709144" numLanes="2" width="3.5" shape="1222.853554,111.906586 1222.323103,112.483020 1220.207485,113.822646 1217.803282,114.550640 1215.454197,114.617454 "/>
  <edge id="100770959" from="290764331" to="1401134179" numLanes="2" width="3.5" shape="221.901031,811.810513 221.627143,809.471889 222.795689,807.021607 "/>
  <edge id="100770960" from="1667670646" to="1164709183" numLanes="2" width="3.5" shape="198.595832,800.343607 199.315560,803.044891 198.001545,805.588280 "/>
  <edge id="100770961" from="1164709156" to="1164709143" numLanes="2" width="3.5" shape="1047.851859,-204.733355 1048.173946,-209.088752 1051.315740,-213.411847 "/>
  <edge id="100770962" from="1138832964" to="1164709185" numLanes="2" width="3.5" shape="1010.911435,-228.401418 1011.841757,-224.130065 1008.565026,-218.734685 "/>
  <edge id="100770963" from="290764339" to="1164709184" numLanes="2" width="3.5" shape="548.025539,736.456874 546.564472,735.950773 544.998364,734.844948 543.928428,733.476868 "/>
  <edge id="100770964" from="1401138882" to="1164709111" numLanes="2" width="3.5" shape="73.220435,790.830049 72.470666,788.329073 72.430947,784.267330 73.130487,781.752215 "/>
  <edge id="100770965" from="1164709161" to="2902530643" numLanes="2" width="3.5" shape="533.035149,755.239451 534.420708,755.142988 536.881976,755.884043 538.922720,757.446110 538.966320,757.516361 "/>
  <edge id="139146584" from="Custom323" to="1524949506" numLanes="1" width="4.0" shape="-580.901353,961.996882 -580.852648,960.542737 "/>