<?xml version="1.0" encoding="UTF-8"?>

<!-- generated on jue 25 nov 2021 10:17:10 CST by Netedit Version 0.30.0
<?xml version="1.0" encoding="UTF-8"?>

<configuration xmlns:xsi="http://www.w3.org/2001/XMLSchema-instance" xsi:noNamespaceSchemaLocation="http://sumo.dlr.de/xsd/netconvertConfiguration.xsd">

    <input>
        <sumo-net-file value="/home/sr-gus/SSocial/Webots-ROS-exec/catkin_ws/src/bring_up_web/worlds/cu_net/sumo.net.xml"/>
    </input>

    <output>
        <output-file value="/home/sr-gus/SSocial/Webots-ROS-exec/catkin_ws/src/bring_up_web/worlds/cu_net/sumo.net.xml"/>
    </output>

    <processing>
        <no-turnarounds value="true"/>
        <offset.disable-normalization value="true"/>
        <lefthand value="false"/>
        <junctions.corner-detail value="0"/>
        <rectangular-lane-cut value="false"/>
    </processing>

</configuration>
-->

<net version="0.27" xmlns:xsi="http://www.w3.org/2001/XMLSchema-instance" xsi:noNamespaceSchemaLocation="http://sumo.dlr.de/xsd/net_file.xsd">

    <location netOffset="1645.89,1276.58" convBoundary="0.00,0.00,3230.62,2238.95" origBoundary="-1645.89,-1276.58,1584.74,962.37" projParameter="!"/>

    <edge id=":-105195_0" function="internal">
        <lane id=":-105195_0_0" index="0" speed="13.90" length="0.30" width="3.50" shape="721.10,1543.97 721.07,1544.28"/>
        <lane id=":-105195_0_1" index="1" speed="13.90" length="0.30" width="3.50" shape="717.52,1543.64 717.49,1543.92"/>
    </edge>
    <edge id=":-105208_0" function="internal">
        <lane id=":-105208_0_0" index="0" speed="13.90" length="11.41" width="3.50" shape="768.86,1709.22 766.64,1708.83 765.28,1710.06 764.76,1712.89 765.10,1717.33"/>
        <lane id=":-105208_0_1" index="1" speed="13.90" length="11.41" width="3.50" shape="767.89,1712.73 764.65,1711.77 762.51,1712.30 761.47,1714.33 761.54,1717.85"/>
    </edge>
    <edge id=":-105210_0" function="internal">
        <lane id=":-105210_0_0" index="0" speed="13.90" length="17.33" width="3.50" shape="694.96,1702.24 692.57,1697.31 691.34,1693.64 691.23,1689.84 692.18,1684.51"/>
        <lane id=":-105210_0_1" index="1" speed="13.90" length="17.33" width="3.50" shape="698.19,1700.65 696.10,1696.37 695.01,1693.20 694.88,1689.91 695.69,1685.29"/>
    </edge>
    <edge id=":-105210_2" function="internal">
        <lane id=":-105210_2_0" index="0" speed="13.90" length="17.08" width="3.50" shape="686.86,1700.49 688.58,1695.78 689.85,1692.59 690.95,1689.35 692.18,1684.51"/>
        <lane id=":-105210_2_1" index="1" speed="13.90" length="17.08" width="3.50" shape="690.26,1701.69 692.01,1696.86 693.31,1693.58 694.44,1690.26 695.69,1685.29"/>
    </edge>
    <edge id=":-105218_0" function="internal">
        <lane id=":-105218_0_0" index="0" speed="13.90" length="0.27" width="3.50" shape="700.91,1539.71 700.91,1539.49"/>
        <lane id=":-105218_0_1" index="1" speed="13.90" length="0.27" width="3.50" shape="704.51,1539.87 704.51,1539.56"/>
    </edge>
    <edge id=":-105342_0" function="internal">
        <lane id=":-105342_0_0" index="0" speed="13.90" length="0.41" width="3.50" shape="730.05,1317.73 730.08,1318.17"/>
        <lane id=":-105342_0_1" index="1" speed="13.90" length="0.41" width="3.50" shape="726.46,1317.96 726.48,1318.34"/>
    </edge>
    <edge id=":-105350_0" function="internal">
        <lane id=":-105350_0_0" index="0" speed="13.90" length="0.27" width="3.50" shape="745.38,1008.34 745.33,1008.65"/>
        <lane id=":-105350_0_1" index="1" speed="13.90" length="0.27" width="3.50" shape="741.82,1007.80 741.79,1008.02"/>
    </edge>
    <edge id=":-105369_0" function="internal">
        <lane id=":-105369_0_0" index="0" speed="13.90" length="0.30" width="3.50" shape="722.70,1021.91 722.73,1021.62"/>
        <lane id=":-105369_0_1" index="1" speed="13.90" length="0.30" width="3.50" shape="726.27,1022.30 726.31,1022.00"/>
    </edge>
    <edge id=":-105375_0" function="internal">
        <lane id=":-105375_0_0" index="0" speed="13.90" length="0.27" width="3.50" shape="707.06,1317.62 707.08,1317.39"/>
        <lane id=":-105375_0_1" index="1" speed="13.90" length="0.27" width="3.50" shape="710.66,1317.82 710.67,1317.50"/>
    </edge>
    <edge id=":-105493_0" function="internal">
        <lane id=":-105493_0_0" index="0" speed="13.90" length="14.09" width="3.50" shape="1530.07,1137.93 1536.31,1125.28"/>
        <lane id=":-105493_0_1" index="1" speed="13.90" length="14.09" width="3.50" shape="1533.33,1139.46 1539.55,1126.84"/>
    </edge>
    <edge id=":-105493_2" function="internal">
        <lane id=":-105493_2_0" index="0" speed="13.90" length="12.86" width="3.50" shape="1533.33,1139.46 1535.57,1135.30 1537.83,1132.28 1540.12,1130.39 1542.43,1129.65"/>
        <lane id=":-105493_2_1" index="1" speed="13.90" length="12.86" width="3.50" shape="1533.33,1139.46 1534.93,1136.93 1537.02,1135.05 1539.61,1133.81 1542.70,1133.24"/>
    </edge>
    <edge id=":-105495_0" function="internal">
        <lane id=":-105495_0_0" index="0" speed="13.90" length="5.04" width="3.50" shape="1553.74,1102.04 1552.12,1099.32"/>
        <lane id=":-105495_0_1" index="1" speed="13.90" length="5.04" width="3.50" shape="1556.73,1100.03 1554.65,1096.62 1553.46,1093.95"/>
    </edge>
    <edge id=":-105495_4" function="internal">
        <lane id=":-105495_4_0" index="0" speed="13.90" length="11.87" width="3.50" shape="1552.12,1099.32 1551.29,1097.94 1549.75,1094.24 1549.13,1090.94 1549.42,1088.06"/>
    </edge>
    <edge id=":-105495_5" function="internal">
        <lane id=":-105495_5_0" index="0" speed="13.90" length="5.04" width="3.50" shape="1553.46,1093.95 1553.32,1093.65 1552.73,1091.12 1552.89,1089.02"/>
    </edge>
    <edge id=":-105495_2" function="internal">
        <lane id=":-105495_2_0" index="0" speed="13.90" length="14.00" width="3.50" shape="1546.01,1101.70 1549.42,1088.06"/>
        <lane id=":-105495_2_1" index="1" speed="13.90" length="14.00" width="3.50" shape="1549.51,1102.54 1552.89,1089.02"/>
    </edge>
    <edge id=":-105825_0" function="internal">
        <lane id=":-105825_0_0" index="0" speed="13.90" length="23.02" width="3.50" shape="211.29,673.46 204.84,673.33 199.68,672.56 194.55,671.38 188.21,670.00"/>
        <lane id=":-105825_0_1" index="1" speed="13.90" length="23.02" width="3.50" shape="211.16,669.86 204.85,669.74 199.96,669.00 195.10,667.84 188.88,666.47"/>
    </edge>
    <edge id=":-105825_2" function="internal">
        <lane id=":-105825_2_0" index="0" speed="13.90" length="4.06" width="3.50" shape="211.16,669.86 209.02,675.13"/>
        <lane id=":-105825_2_1" index="1" speed="13.90" length="4.06" width="3.50" shape="211.16,669.86 211.24,672.28"/>
    </edge>
    <edge id=":-105834_0" function="internal">
        <lane id=":-105834_0_0" index="0" speed="13.90" length="1.00" width="3.50" shape="61.40,682.03 60.94,682.74"/>
        <lane id=":-105834_0_1" index="1" speed="13.90" length="1.00" width="3.50" shape="58.38,680.07 57.77,681.04"/>
    </edge>
    <edge id=":-105835_0" function="internal">
        <lane id=":-105835_0_0" index="0" speed="13.90" length="2.95" width="3.50" shape="55.26,693.34 56.42,695.43"/>
        <lane id=":-105835_0_1" index="1" speed="13.90" length="2.95" width="3.50" shape="55.26,693.34 52.85,694.95"/>
        <lane id=":-105835_0_2" index="2" speed="13.90" length="2.95" width="3.50" shape="51.91,691.95 49.30,694.37"/>
    </edge>
    <edge id=":-105838_0" function="internal">
        <lane id=":-105838_0_0" index="0" speed="13.90" length="12.66" width="3.50" shape="18.61,979.60 18.42,982.98 18.83,985.33 19.96,987.48 21.96,990.28"/>
        <lane id=":-105838_0_1" index="1" speed="13.90" length="12.66" width="3.50" shape="18.61,979.60 17.88,983.64 17.22,986.59 17.42,989.31 19.24,992.66"/>
    </edge>
    <edge id=":-105838_2" function="internal">
        <lane id=":-105838_2_0" index="0" speed="13.90" length="14.00" width="3.50" shape="18.61,979.60 16.26,993.71"/>
        <lane id=":-105838_2_1" index="1" speed="13.90" length="14.00" width="3.50" shape="15.03,979.22 12.72,993.03"/>
        <lane id=":-105838_2_2" index="2" speed="13.90" length="14.00" width="3.50" shape="11.45,978.84 9.19,992.35"/>
    </edge>
    <edge id=":-105839_0" function="internal">
        <lane id=":-105839_0_0" index="0" speed="13.90" length="6.01" width="3.50" shape="11.77,1017.07 11.79,1018.07 12.26,1018.89 13.19,1019.53 14.58,1020.00"/>
        <lane id=":-105839_0_1" index="1" speed="13.90" length="6.01" width="3.50" shape="11.77,1017.07 11.48,1019.61 11.72,1021.54 12.48,1022.83 13.77,1023.51"/>
    </edge>
    <edge id=":-105839_2" function="internal">
        <lane id=":-105839_2_0" index="0" speed="13.90" length="10.97" width="3.50" shape="11.77,1017.07 11.23,1020.12 10.98,1022.23 10.86,1024.35 10.73,1027.46"/>
        <lane id=":-105839_2_1" index="1" speed="13.90" length="10.97" width="3.50" shape="8.23,1016.38 7.66,1019.59 7.40,1021.80 7.27,1024.03 7.13,1027.28"/>
        <lane id=":-105839_2_2" index="2" speed="13.90" length="10.97" width="3.50" shape="4.70,1015.70 4.10,1019.05 3.82,1021.37 3.69,1023.70 3.54,1027.11"/>
    </edge>
    <edge id=":-105851_0" function="internal">
        <lane id=":-105851_0_0" index="0" speed="13.90" length="9.80" width="3.50" shape="51.02,1030.76 49.11,1027.73 48.68,1025.66 49.75,1024.55 52.30,1024.41"/>
    </edge>
    <edge id=":-105851_1" function="internal">
        <lane id=":-105851_1_0" index="0" speed="13.90" length="1.70" width="3.50" shape="51.02,1030.76 49.40,1031.47"/>
        <lane id=":-105851_1_1" index="1" speed="13.90" length="1.70" width="3.50" shape="47.58,1032.18 46.04,1032.76"/>
    </edge>
    <edge id=":-105851_3" function="internal">
        <lane id=":-105851_3_0" index="0" speed="13.90" length="16.99" width="3.50" shape="35.16,1023.92 40.26,1023.87 43.75,1023.84 47.23,1023.97 52.30,1024.41"/>
        <lane id=":-105851_3_1" index="1" speed="13.90" length="16.99" width="3.50" shape="35.16,1027.52 40.15,1027.47 43.57,1027.44 46.98,1027.56 51.95,1027.99"/>
    </edge>
    <edge id=":-105851_5" function="internal">
        <lane id=":-105851_5_0" index="0" speed="13.90" length="12.84" width="3.50" shape="35.16,1027.52 39.17,1027.85 42.32,1028.83 44.61,1030.46 46.04,1032.76"/>
    </edge>
    <edge id=":-105852_0" function="internal">
        <lane id=":-105852_0_0" index="0" speed="13.90" length="0.73" width="3.50" shape="54.06,1024.58 54.39,1024.62 54.61,1024.65 54.83,1024.71 55.14,1024.81"/>
        <lane id=":-105852_0_1" index="1" speed="13.90" length="0.73" width="3.50" shape="53.70,1028.16 53.81,1028.18 53.88,1028.19 53.95,1028.21 54.05,1028.24"/>
    </edge>
    <edge id=":-105857_0" function="internal">
        <lane id=":-105857_0_0" index="0" speed="13.90" length="11.00" width="3.50" shape="38.52,1079.10 28.96,1073.59"/>
        <lane id=":-105857_0_1" index="1" speed="13.90" length="11.00" width="3.50" shape="40.29,1075.97 30.80,1070.50"/>
    </edge>
    <edge id=":-105857_2" function="internal">
        <lane id=":-105857_2_0" index="0" speed="13.90" length="3.53" width="3.50" shape="39.80,1071.35 37.65,1072.42"/>
        <lane id=":-105857_2_1" index="1" speed="13.90" length="3.53" width="3.50" shape="38.02,1068.22 35.45,1069.57 33.83,1070.22"/>
    </edge>
    <edge id=":-105857_4" function="internal">
        <lane id=":-105857_4_0" index="0" speed="13.90" length="9.10" width="3.50" shape="37.65,1072.42 36.32,1073.09 33.36,1074.04 30.90,1074.21 28.96,1073.59"/>
    </edge>
    <edge id=":-105857_5" function="internal">
        <lane id=":-105857_5_0" index="0" speed="13.90" length="3.12" width="3.50" shape="33.83,1070.22 33.40,1070.40 31.84,1070.71 30.80,1070.50"/>
    </edge>
    <edge id=":-105914_0" function="internal">
        <lane id=":-105914_0_0" index="0" speed="13.90" length="0.19" width="3.50" shape="65.69,1108.26 65.57,1108.04"/>
        <lane id=":-105914_0_1" index="1" speed="13.90" length="0.19" width="3.50" shape="68.82,1106.48 68.75,1106.36"/>
    </edge>
    <edge id=":-106061_0" function="internal">
        <lane id=":-106061_0_0" index="0" speed="13.90" length="0.10" width="3.50" shape="200.96,1467.51 200.96,1467.51"/>
        <lane id=":-106061_0_1" index="1" speed="13.90" length="0.10" width="3.50" shape="204.50,1466.78 204.50,1466.78"/>
    </edge>
    <edge id=":-106061_2" function="internal">
        <lane id=":-106061_2_0" index="0" speed="13.90" length="7.96" width="3.50" shape="206.62,1464.83 203.68,1464.53 201.76,1464.87 200.85,1465.87 200.96,1467.51"/>
        <lane id=":-106061_2_1" index="1" speed="13.90" length="7.96" width="3.50" shape="207.27,1461.29 205.32,1461.31 204.21,1462.23 203.93,1464.05 204.50,1466.78"/>
    </edge>
    <edge id=":-106062_0" function="internal">
        <lane id=":-106062_0_0" index="0" speed="13.90" length="11.35" width="3.50" shape="228.68,1455.56 228.87,1458.80 228.98,1461.03 229.20,1463.24 229.74,1466.45"/>
        <lane id=":-106062_0_1" index="1" speed="13.90" length="11.35" width="3.50" shape="225.06,1455.44 225.27,1458.92 225.38,1461.30 225.63,1463.68 226.20,1467.11"/>
    </edge>
    <edge id=":-106062_2" function="internal">
        <lane id=":-106062_2_0" index="0" speed="13.90" length="10.36" width="3.50" shape="225.06,1455.44 224.97,1458.72 224.18,1461.42 222.69,1463.54 220.50,1465.09"/>
        <lane id=":-106062_2_1" index="1" speed="13.90" length="10.36" width="3.50" shape="225.06,1455.44 224.77,1457.06 223.64,1458.68 221.68,1460.28 218.90,1461.86"/>
    </edge>
    <edge id=":-106256_0" function="internal">
        <lane id=":-106256_0_0" index="0" speed="13.90" length="17.53" width="3.50" shape="189.66,1275.56 189.07,1270.22 188.54,1266.54 188.37,1262.88 188.84,1257.56"/>
        <lane id=":-106256_0_1" index="1" speed="13.90" length="17.53" width="3.50" shape="193.22,1274.91 192.66,1269.90 192.15,1266.45 191.97,1263.02 192.41,1258.03"/>
    </edge>
    <edge id=":-106256_2" function="internal">
        <lane id=":-106256_2_0" index="0" speed="13.90" length="17.61" width="3.50" shape="182.50,1272.18 184.70,1270.10 186.49,1266.97 187.87,1262.79 188.84,1257.56"/>
        <lane id=":-106256_2_1" index="1" speed="13.90" length="17.61" width="3.50" shape="185.00,1274.85 187.59,1272.43 189.68,1268.82 191.29,1264.02 192.41,1258.03"/>
    </edge>
    <edge id=":-106260_0" function="internal">
        <lane id=":-106260_0_0" index="0" speed="13.90" length="13.99" width="3.50" shape="204.67,1150.30 207.12,1136.51"/>
        <lane id=":-106260_0_1" index="1" speed="13.90" length="13.99" width="3.50" shape="208.22,1150.91 210.66,1137.14"/>
    </edge>
    <edge id=":-106260_2" function="internal">
        <lane id=":-106260_2_0" index="0" speed="13.90" length="12.77" width="3.50" shape="208.22,1150.91 209.32,1146.51 210.95,1143.26 213.08,1141.16 215.73,1140.20"/>
        <lane id=":-106260_2_1" index="1" speed="13.90" length="12.77" width="3.50" shape="208.22,1150.91 209.12,1148.13 210.75,1146.01 213.11,1144.56 216.20,1143.77"/>
    </edge>
    <edge id=":-106261_0" function="internal">
        <lane id=":-106261_0_0" index="0" speed="13.90" length="0.54" width="3.50" shape="215.26,1123.44 214.92,1123.29"/>
        <lane id=":-106261_0_1" index="1" speed="13.90" length="0.54" width="3.50" shape="216.23,1119.97 215.57,1119.69"/>
    </edge>
    <edge id=":-106261_4" function="internal">
        <lane id=":-106261_4_0" index="0" speed="13.90" length="9.10" width="3.50" shape="214.92,1123.29 212.91,1122.42 211.37,1120.88 210.65,1118.83 210.74,1116.27"/>
    </edge>
    <edge id=":-106261_5" function="internal">
        <lane id=":-106261_5_0" index="0" speed="13.90" length="3.34" width="3.50" shape="215.57,1119.69 215.22,1119.53 214.56,1118.87 214.25,1118.00 214.29,1116.90"/>
    </edge>
    <edge id=":-106261_2" function="internal">
        <lane id=":-106261_2_0" index="0" speed="13.90" length="8.00" width="3.50" shape="209.34,1124.14 210.74,1116.27"/>
        <lane id=":-106261_2_1" index="1" speed="13.90" length="8.00" width="3.50" shape="212.88,1124.78 214.29,1116.90"/>
    </edge>
    <edge id=":-106265_0" function="internal">
        <lane id=":-106265_0_0" index="0" speed="13.90" length="11.00" width="3.50" shape="221.36,1056.13 223.13,1045.29"/>
        <lane id=":-106265_0_1" index="1" speed="13.90" length="11.00" width="3.50" shape="224.91,1056.74 226.68,1045.86"/>
    </edge>
    <edge id=":-106265_2" function="internal">
        <lane id=":-106265_2_0" index="0" speed="13.90" length="9.17" width="3.50" shape="224.91,1056.74 225.66,1053.60 226.74,1051.16 228.15,1049.44 229.88,1048.42"/>
        <lane id=":-106265_2_1" index="1" speed="13.90" length="9.17" width="3.50" shape="224.91,1056.74 225.48,1055.33 226.70,1054.04 228.56,1052.87 231.07,1051.82"/>
    </edge>
    <edge id=":-106267_0" function="internal">
        <lane id=":-106267_0_0" index="0" speed="13.90" length="3.10" width="3.50" shape="232.83,1033.33 230.52,1032.76"/>
        <lane id=":-106267_0_1" index="1" speed="13.90" length="3.10" width="3.50" shape="234.68,1029.85 232.37,1029.35 231.19,1028.51"/>
    </edge>
    <edge id=":-106267_4" function="internal">
        <lane id=":-106267_4_0" index="0" speed="13.90" length="11.02" width="3.50" shape="230.52,1032.76 229.54,1032.52 227.40,1030.64 226.39,1027.68 226.53,1023.65"/>
    </edge>
    <edge id=":-106267_5" function="internal">
        <lane id=":-106267_5_0" index="0" speed="13.90" length="4.65" width="3.50" shape="231.19,1028.51 230.83,1028.25 230.07,1026.53 230.09,1024.20"/>
    </edge>
    <edge id=":-106267_2" function="internal">
        <lane id=":-106267_2_0" index="0" speed="13.90" length="10.99" width="3.50" shape="224.84,1034.51 226.53,1023.65"/>
        <lane id=":-106267_2_1" index="1" speed="13.90" length="10.99" width="3.50" shape="228.39,1035.07 230.09,1024.20"/>
    </edge>
    <edge id=":-106282_0" function="internal">
        <lane id=":-106282_0_0" index="0" speed="13.90" length="11.00" width="3.50" shape="253.30,1023.88 252.04,1034.81"/>
        <lane id=":-106282_0_1" index="1" speed="13.90" length="11.00" width="3.50" shape="249.73,1023.47 248.47,1034.40"/>
    </edge>
    <edge id=":-106282_2" function="internal">
        <lane id=":-106282_2_0" index="0" speed="13.90" length="8.87" width="3.50" shape="249.73,1023.47 249.12,1026.07 248.10,1027.64 246.70,1029.07 244.92,1031.23"/>
        <lane id=":-106282_2_1" index="1" speed="13.90" length="8.87" width="3.50" shape="249.73,1023.47 248.98,1025.54 247.57,1026.47 245.72,1027.19 243.67,1028.65"/>
    </edge>
    <edge id=":-106284_0" function="internal">
        <lane id=":-106284_0_0" index="0" speed="13.90" length="11.00" width="3.50" shape="250.47,1047.49 249.08,1058.39"/>
        <lane id=":-106284_0_1" index="1" speed="13.90" length="11.00" width="3.50" shape="246.90,1047.02 245.51,1057.94"/>
    </edge>
    <edge id=":-106284_2" function="internal">
        <lane id=":-106284_2_0" index="0" speed="13.90" length="3.12" width="3.50" shape="242.24,1048.78 244.78,1049.87"/>
        <lane id=":-106284_2_1" index="1" speed="13.90" length="3.12" width="3.50" shape="241.26,1052.25 243.32,1053.11 244.25,1053.94"/>
    </edge>
    <edge id=":-106284_4" function="internal">
        <lane id=":-106284_4_0" index="0" speed="13.90" length="10.28" width="3.50" shape="244.78,1049.87 245.58,1050.21 247.83,1052.29 249.00,1055.01 249.08,1058.39"/>
    </edge>
    <edge id=":-106284_5" function="internal">
        <lane id=":-106284_5_0" index="0" speed="13.90" length="4.37" width="3.50" shape="244.25,1053.94 244.72,1054.35 245.44,1055.96 245.51,1057.94"/>
    </edge>
    <edge id=":-106286_0" function="internal">
        <lane id=":-106286_0_0" index="0" speed="13.90" length="11.00" width="3.50" shape="242.62,1115.41 241.47,1126.40"/>
        <lane id=":-106286_0_1" index="1" speed="13.90" length="11.00" width="3.50" shape="239.03,1115.10 237.90,1125.99"/>
    </edge>
    <edge id=":-106286_2" function="internal">
        <lane id=":-106286_2_0" index="0" speed="13.90" length="9.29" width="3.50" shape="239.03,1115.10 238.49,1118.59 237.50,1121.19 236.08,1122.89 234.22,1123.69"/>
        <lane id=":-106286_2_1" index="1" speed="13.90" length="9.29" width="3.50" shape="239.03,1115.10 238.56,1116.98 237.50,1118.45 235.85,1119.50 233.61,1120.14"/>
    </edge>
    <edge id=":-106287_0" function="internal">
        <lane id=":-106287_0_0" index="0" speed="13.90" length="13.99" width="3.50" shape="239.71,1141.60 238.11,1155.50"/>
        <lane id=":-106287_0_1" index="1" speed="13.90" length="13.99" width="3.50" shape="236.14,1141.19 234.54,1155.09"/>
    </edge>
    <edge id=":-106287_2" function="internal">
        <lane id=":-106287_2_0" index="0" speed="13.90" length="6.27" width="3.50" shape="240.68,1147.20 239.95,1147.44 239.28,1148.91 238.67,1151.59 238.11,1155.50"/>
        <lane id=":-106287_2_1" index="1" speed="13.90" length="6.27" width="3.50" shape="240.24,1151.00 238.03,1150.35 236.91,1150.65"/>
    </edge>
    <edge id=":-106287_4" function="internal">
        <lane id=":-106287_4_0" index="0" speed="13.90" length="5.32" width="3.50" shape="236.91,1150.65 236.34,1150.81 235.18,1152.39 234.54,1155.09"/>
    </edge>
    <edge id=":-106292_0" function="internal">
        <lane id=":-106292_0_0" index="0" speed="13.90" length="14.22" width="3.50" shape="223.34,1283.40 221.73,1297.41"/>
        <lane id=":-106292_0_1" index="1" speed="13.90" length="14.22" width="3.50" shape="219.77,1282.99 218.13,1297.22"/>
    </edge>
    <edge id=":-106292_2" function="internal">
        <lane id=":-106292_2_0" index="0" speed="13.90" length="13.84" width="3.50" shape="219.77,1282.99 218.87,1288.12 217.52,1291.92 215.71,1294.38 213.45,1295.50"/>
        <lane id=":-106292_2_1" index="1" speed="13.90" length="13.84" width="3.50" shape="219.77,1282.99 218.95,1286.51 217.40,1289.20 215.11,1291.05 212.09,1292.08"/>
    </edge>
    <edge id=":-107141_0" function="internal">
        <lane id=":-107141_0_0" index="0" speed="13.90" length="12.34" width="3.50" shape="2161.56,854.65 2161.53,850.14 2162.37,847.09 2164.08,845.52 2166.66,845.42"/>
        <lane id=":-107141_0_1" index="1" speed="13.90" length="12.34" width="3.50" shape="2157.95,854.65 2158.20,851.47 2159.61,849.46 2162.18,848.62 2165.92,848.95"/>
    </edge>
    <edge id=":-107141_2" function="internal">
        <lane id=":-107141_2_0" index="0" speed="13.90" length="2.99" width="3.50" shape="2157.95,854.65 2160.94,854.65"/>
    </edge>
    <edge id=":-107141_3" function="internal">
        <lane id=":-107141_3_0" index="0" speed="13.90" length="14.00" width="3.50" shape="2152.63,842.96 2166.66,845.42"/>
        <lane id=":-107141_3_1" index="1" speed="13.90" length="14.00" width="3.50" shape="2152.13,846.52 2165.92,848.95"/>
        <lane id=":-107141_3_2" index="2" speed="13.90" length="14.00" width="3.50" shape="2151.63,850.09 2165.18,852.47"/>
    </edge>
    <edge id=":-107141_6" function="internal">
        <lane id=":-107141_6_0" index="0" speed="13.90" length="8.03" width="3.50" shape="2151.63,850.09 2154.13,850.67 2155.91,851.63 2156.98,852.95 2157.34,854.65"/>
    </edge>
    <edge id=":-107142_0" function="internal">
        <lane id=":-107142_0_0" index="0" speed="13.90" length="5.19" width="3.50" shape="2165.67,878.66 2163.89,878.67 2162.68,879.05 2162.03,879.81 2161.95,880.95"/>
    </edge>
    <edge id=":-107142_1" function="internal">
        <lane id=":-107142_1_0" index="0" speed="13.90" length="14.00" width="3.50" shape="2165.67,878.66 2161.42,878.27 2158.51,877.93 2155.63,877.43 2151.44,876.60"/>
        <lane id=":-107142_1_1" index="1" speed="13.90" length="14.00" width="3.50" shape="2165.99,875.08 2161.85,874.70 2159.03,874.36 2156.22,873.88 2152.15,873.07"/>
        <lane id=":-107142_1_2" index="2" speed="13.90" length="14.00" width="3.50" shape="2166.31,871.49 2162.29,871.12 2159.54,870.79 2156.82,870.33 2152.86,869.54"/>
    </edge>
    <edge id=":-107142_4" function="internal">
        <lane id=":-107142_4_0" index="0" speed="13.90" length="13.97" width="3.50" shape="2160.94,867.31 2160.96,871.38 2161.07,874.16 2161.37,876.93 2161.95,880.95"/>
        <lane id=":-107142_4_1" index="1" speed="13.90" length="13.97" width="3.50" shape="2157.34,867.31 2157.36,871.53 2157.47,874.43 2157.78,877.30 2158.39,881.48"/>
    </edge>
    <edge id=":-107142_6" function="internal">
        <lane id=":-107142_6_0" index="0" speed="13.90" length="7.58" width="3.50" shape="2157.34,867.31 2157.02,870.22 2156.04,872.15 2154.42,873.11 2152.15,873.07"/>
        <lane id=":-107142_6_1" index="1" speed="13.90" length="7.58" width="3.50" shape="2157.34,867.31 2157.06,868.63 2156.22,869.44 2154.82,869.74 2152.86,869.54"/>
    </edge>
    <edge id=":-107425_0" function="internal">
        <lane id=":-107425_0_0" index="0" speed="13.90" length="2.63" width="3.50" shape="619.60,634.61 618.44,633.47 618.17,632.51"/>
    </edge>
    <edge id=":-107425_2" function="internal">
        <lane id=":-107425_2_0" index="0" speed="13.90" length="2.63" width="3.50" shape="618.17,632.51 618.77,631.71 620.27,631.07"/>
    </edge>
    <edge id=":-107425_1" function="internal">
        <lane id=":-107425_1_0" index="0" speed="13.90" length="0.18" width="3.50" shape="620.30,630.90 620.27,631.07"/>
    </edge>
    <edge id=":-107438_0" function="internal">
        <lane id=":-107438_0_0" index="0" speed="13.90" length="0.80" width="3.50" shape="890.09,463.11 890.13,463.00 890.15,462.92 890.17,462.84 890.18,462.73"/>
        <lane id=":-107438_0_1" index="1" speed="13.90" length="0.80" width="3.50" shape="893.45,464.40 893.57,464.06 893.65,463.83 893.70,463.59 893.75,463.24"/>
    </edge>
    <edge id=":-107440_0" function="internal">
        <lane id=":-107440_0_0" index="0" speed="13.90" length="0.39" width="3.50" shape="894.59,440.93 894.61,440.87 894.61,440.83 894.62,440.80 894.62,440.74"/>
        <lane id=":-107440_0_1" index="1" speed="13.90" length="0.39" width="3.50" shape="898.12,441.65 898.16,441.48 898.18,441.36 898.19,441.24 898.21,441.07"/>
    </edge>
    <edge id=":-107450_0" function="internal">
        <lane id=":-107450_0_0" index="0" speed="13.90" length="7.13" width="3.50" shape="854.41,287.21 852.74,284.51"/>
        <lane id=":-107450_0_1" index="1" speed="13.90" length="7.13" width="3.50" shape="857.50,285.36 855.81,282.53 854.63,280.62 853.36,278.76 851.40,276.12"/>
    </edge>
    <edge id=":-107463_0" function="internal">
        <lane id=":-107463_0_0" index="0" speed="13.90" length="0.32" width="3.50" shape="547.62,101.10 547.57,101.10 547.54,101.09 547.51,101.09 547.46,101.09"/>
        <lane id=":-107463_0_1" index="1" speed="13.90" length="0.32" width="3.50" shape="547.81,97.51 547.67,97.50 547.57,97.49 547.47,97.49 547.33,97.50"/>
    </edge>
    <edge id=":-107474_0" function="internal">
        <lane id=":-107474_0_0" index="0" speed="13.90" length="9.86" width="3.50" shape="1357.33,702.20 1354.69,702.16 1352.60,702.48 1351.06,703.16 1350.06,704.19"/>
        <lane id=":-107474_0_1" index="1" speed="13.90" length="9.86" width="3.50" shape="1357.59,698.61 1353.91,698.62 1350.91,699.25 1348.60,700.49 1346.97,702.35"/>
    </edge>
    <edge id=":-107474_2" function="internal">
        <lane id=":-107474_2_0" index="0" speed="13.90" length="11.00" width="3.50" shape="1354.95,694.08 1353.67,697.16 1352.76,699.27 1351.73,701.30 1350.06,704.19"/>
        <lane id=":-107474_2_1" index="1" speed="13.90" length="11.00" width="3.50" shape="1351.63,692.68 1350.41,695.63 1349.55,697.64 1348.56,699.59 1346.97,702.35"/>
    </edge>
    <edge id=":-107559_0" function="internal">
        <lane id=":-107559_0_0" index="0" speed="13.90" length="0.49" width="3.50" shape="654.52,646.38 654.59,646.38 654.64,646.38 654.69,646.38 654.76,646.37"/>
        <lane id=":-107559_0_1" index="1" speed="13.90" length="0.49" width="3.50" shape="654.30,649.97 654.52,649.98 654.67,649.99 654.81,649.98 655.03,649.96"/>
    </edge>
    <edge id=":-107560_0" function="internal">
        <lane id=":-107560_0_0" index="0" speed="13.90" length="13.96" width="3.50" shape="659.35,646.03 663.69,645.10 666.70,643.78 669.63,643.04 673.72,643.88"/>
        <lane id=":-107560_0_1" index="1" speed="13.90" length="13.96" width="3.50" shape="660.04,649.59 663.80,648.71 666.39,647.39 668.90,646.59 672.43,647.24"/>
    </edge>
    <edge id=":-107562_0" function="internal">
        <lane id=":-107562_0_0" index="0" speed="13.90" length="0.14" width="3.50" shape="715.47,655.46 715.49,655.33"/>
        <lane id=":-107562_0_1" index="1" speed="13.90" length="0.14" width="3.50" shape="714.73,659.00 714.76,658.86"/>
    </edge>
    <edge id=":-107562_2" function="internal">
        <lane id=":-107562_2_0" index="0" speed="13.90" length="10.34" width="3.50" shape="704.70,659.61 707.60,657.35 710.36,655.89 712.99,655.22 715.49,655.33"/>
        <lane id=":-107562_2_1" index="1" speed="13.90" length="10.34" width="3.50" shape="707.09,662.30 709.29,660.55 711.30,659.40 713.12,658.83 714.76,658.86"/>
    </edge>
    <edge id=":-107563_0" function="internal">
        <lane id=":-107563_0_0" index="0" speed="13.90" length="0.14" width="3.50" shape="741.79,660.83 741.82,660.69"/>
        <lane id=":-107563_0_1" index="1" speed="13.90" length="0.14" width="3.50" shape="741.18,664.38 741.21,664.24"/>
    </edge>
    <edge id=":-107582_0" function="internal">
        <lane id=":-107582_0_0" index="0" speed="13.90" length="20.15" width="3.50" shape="1087.03,664.74 1086.85,671.64 1087.45,676.84 1088.82,680.32 1090.97,682.10"/>
        <lane id=":-107582_0_1" index="1" speed="13.90" length="20.15" width="3.50" shape="1083.44,664.48 1083.35,671.27 1084.18,676.93 1085.91,681.45 1088.55,684.83"/>
    </edge>
    <edge id=":-107582_2" function="internal">
        <lane id=":-107582_2_0" index="0" speed="13.90" length="20.30" width="3.50" shape="1083.44,664.48 1083.37,670.52 1083.79,674.82 1083.99,679.09 1083.27,685.05"/>