<?xml version='1.0' encoding='UTF-8'?>
<nodes>
  <node id="-105195" x="-926.692014" y="267.357126"/>
  <node id="-105208" x="-894.336759" y="426.922495" shape="-893.812145,423.320443 -876.571960,431.009075 -879.201281,440.519094 -886.127632,441.531842 -896.685157,429.703687 -893.812145,423.320443 -893.812145,423.320443"/>
  <node id="-105209" x="-877.996911" y="434.205872"/>
  <node id="-105210" x="-952.071315" y="409.314646" shape="-955.269042,407.575524 -948.437483,409.101894 -946.089561,423.263700 -952.362835,426.369506 -960.522537,423.344145 -955.269042,407.575524 -955.269042,407.575524"/>
  <node id="-105218" x="-943.073044" y="263.078125"/>
  <node id="-105342" x="-917.710136" y="41.562926"/>
  <node id="-105350" x="-902.404184" y="-268.39768"/>
  <node id="-105369" x="-921.288334" y="-254.616611"/>
  <node id="-105375" x="-936.917929" y="41.005567"/>
  <node id="-105480" x="-267.257206" y="97.93087"/>
  <node id="-105493" x="-112.388823" y="-141.460279" shape="-111.031234,-151.967750 -103.575254,-148.534547 -103.050689,-141.554230 -110.925680,-136.350562 -117.259099,-139.331803 -115.555533,-142.950900 -115.516939,-143.030276 -111.031234,-151.967750 -111.031234,-151.967750"/>
  <node id="-105495" x="-95.71256" y="-184.165443" shape="-98.012548,-188.957108 -91.268607,-187.081139 -87.662427,-177.559352 -93.465625,-173.644906 -94.630143,-173.626070 -101.438831,-175.251419 -99.116904,-184.978117 -99.084530,-185.103428 -98.012548,-188.957108 -98.012548,-188.957108"/>
  <node id="-105825" x="-1438.661276" y="-604.890953" shape="-1452.762287,-618.097447 -1434.784418,-608.526881 -1434.542897,-601.531049 -1438.540516,-601.393037 -1439.316708,-601.452871 -1457.980583,-605.010930 -1456.669719,-611.887094 -1456.542566,-612.205970 -1452.762287,-618.097447 -1452.762287,-618.097447"/>
  <node id="-105834" x="-1586.621915" y="-594.74114"/>
  <node id="-105835" x="-1593.034418" y="-582.787939" shape="-1595.645893,-585.323722 -1587.832180,-582.081384 -1587.966762,-581.090481 -1589.950206,-581.133359 -1598.371238,-582.503592 -1598.236656,-583.494494 -1595.645893,-585.323722 -1595.645893,-585.323722"/>
  <node id="-105838" x="-1631.424428" y="-293.403198" shape="-1636.225140,-297.932620 -1625.783247,-296.829504 -1622.717800,-287.366259 -1628.156268,-282.592017 -1638.467538,-284.573866 -1636.225140,-297.932620 -1636.225140,-297.932620"/>
  <node id="-105839" x="-1638.55589" y="-256.299244" shape="-1642.956535,-261.218271 -1632.645265,-259.236422 -1630.949311,-258.140427 -1632.518996,-251.318690 -1633.658338,-249.048280 -1644.145501,-249.567324 -1643.799472,-256.558766 -1643.711525,-257.290168 -1642.956535,-261.218271 -1642.956535,-261.218271"/>
  <node id="-105841" x="-1640.989321" y="-207.132327" shape="-1645.886873,-214.383291 -1635.399710,-213.864247 -1635.104744,-213.404248 -1635.054370,-206.404429 -1638.591568,-204.582664 -1646.232903,-207.391849 -1645.886873,-214.383291 -1645.886873,-214.383291"/>
  <node id="-105851" x="-1600.73801" y="-250.971788" shape="-1604.250407,-260.848401 -1593.428854,-253.769328 -1594.114484,-246.802987 -1594.979097,-245.672267 -1601.522279,-243.184945 -1610.730617,-247.262254 -1610.738154,-254.262250 -1609.826716,-256.616997 -1604.250407,-260.848401 -1604.250407,-260.848401"/>
  <node id="-105852" x="-1591.680878" y="-250.080382"/>
  <node id="-105857" x="-1612.520317" y="-202.57843" shape="-1608.758322,-209.936839 -1605.302752,-203.849226 -1604.703912,-202.186250 -1608.144218,-196.089997 -1614.240470,-199.530304 -1614.312524,-199.572104 -1617.748325,-201.620341 -1614.163910,-207.632992 -1608.758322,-209.936839 -1608.758322,-209.936839"/>
  <node id="-105914" x="-1578.54746" y="-169.260861"/>
  <node id="-106061" x="-1445.236841" y="183.531676" shape="-1443.077777,178.674883 -1438.298367,182.933726 -1439.550361,189.820853 -1446.507856,191.254015 -1449.764053,180.747012 -1443.077777,178.674883 -1443.077777,178.674883"/>
  <node id="-106062" x="-1419.021243" y="180.281205" shape="-1422.195928,178.807647 -1415.602528,179.031251 -1414.573130,189.574169 -1421.453636,190.862050 -1424.673961,189.933427 -1427.789588,183.665024 -1422.195928,178.807647 -1422.195928,178.807647"/>
  <node id="-106256" x="-1455.297471" y="-17.77832" shape="-1458.636398,-19.227999 -1451.696665,-18.311422 -1450.883393,-2.006005 -1459.640824,-0.395737 -1464.239199,-5.317259 -1458.636398,-19.227999 -1458.636398,-19.227999"/>
  <node id="-106260" x="-1438.675381" y="-129.902915" shape="-1440.347324,-140.364971 -1433.458179,-139.124130 -1430.364246,-137.971427 -1429.443158,-131.032292 -1435.898901,-125.370680 -1442.798949,-126.549381 -1442.125405,-130.492266 -1442.119953,-130.523335 -1440.347324,-140.364971 -1440.347324,-140.364971"/>
  <node id="-106261" x="-1433.967443" y="-156.041381" shape="-1436.718228,-160.589258 -1429.824961,-159.371523 -1429.176058,-158.341953 -1431.051205,-151.597784 -1431.231922,-151.484307 -1438.121067,-152.725147 -1436.718228,-160.589258 -1436.718228,-160.589258"/>
  <node id="-106265" x="-1421.990412" y="-224.076802" shape="-1424.337288,-231.542870 -1417.425683,-230.433944 -1416.525019,-229.678541 -1414.229785,-223.065531 -1419.211802,-219.545872 -1426.112403,-220.721331 -1424.337288,-231.542870 -1424.337288,-231.542870"/>
  <node id="-106267" x="-1418.088731" y="-248.691399" shape="-1420.932750,-253.181561 -1414.015830,-252.106289 -1410.265007,-248.493035 -1413.553188,-242.313402 -1415.720815,-241.231977 -1422.635518,-242.321413 -1420.932750,-253.181561 -1420.932750,-253.181561"/>
  <node id="-106282" x="-1394.929454" y="-248.947413" shape="-1397.947953,-253.322189 -1390.994079,-252.519922 -1391.452517,-248.546280 -1392.255633,-241.592097 -1399.209414,-242.395166 -1399.704022,-242.746324 -1402.755066,-249.046414 -1397.947953,-253.322189 -1397.947953,-253.322189"/>
  <node id="-106284" x="-1398.198339" y="-222.400763" shape="-1400.763199,-229.794780 -1393.822041,-228.889062 -1395.222219,-217.997048 -1402.168023,-218.866416 -1405.119299,-222.605866 -1403.211712,-229.340931 -1400.763199,-229.794780 -1400.763199,-229.794780"/>
  <node id="-106286" x="-1405.497981" y="-157.353347" shape="-1408.651070,-161.632136 -1401.675609,-161.046513 -1402.010251,-157.060536 -1402.021097,-156.951749 -1402.824294,-149.997982 -1409.778061,-150.801178 -1411.393733,-151.319568 -1412.589727,-158.216640 -1408.651070,-161.632136 -1408.651070,-161.632136"/>
  <node id="-106287" x="-1409.203686" y="-125.270759" shape="-1414.472009,-135.681726 -1411.533146,-135.606310 -1404.579379,-134.803114 -1406.185591,-120.895704 -1413.139391,-121.698614 -1417.533851,-129.386877 -1414.472009,-135.681726 -1414.472009,-135.681726"/>
  <node id="-106292" x="-1424.893248" y="10.570589" shape="-1427.910907,6.195234 -1420.957187,6.998835 -1422.553681,20.903857 -1431.838438,20.430604 -1434.272912,14.286118 -1427.910907,6.195234 -1427.910907,6.195234"/>
  <node id="-107141" x="513.152835" y="-428.936643" shape="516.020173,-436.218701 521.085795,-432.628613 518.918355,-422.354753 516.651666,-421.936058 509.651666,-421.937228 505.491611,-424.709570 506.949703,-435.107838 509.047592,-435.599749 516.020173,-436.218701 516.020173,-436.218701"/>
  <node id="-107142" x="513.148381" y="-402.271703" shape="509.649550,-409.272288 516.649550,-409.271118 520.586235,-406.880481 519.655407,-396.421821 517.642225,-395.864257 510.718731,-394.832160 505.250595,-398.505076 507.321039,-408.798922 509.649550,-409.272288 509.649550,-409.272288"/>
  <node id="-107425" x="-1026.931782" y="-643.926889" shape="-1027.542805,-647.515294 -1026.548810,-647.405873 -1026.288358,-647.367239 -1025.305401,-647.183403 -1026.592249,-640.302704 -1028.308750,-640.557325 -1027.542805,-647.515294 -1027.542805,-647.515294"/>
  <node id="-107438" x="-753.880196" y="-813.1719"/>
  <node id="-107440" x="-749.394128" y="-835.44801"/>
  <node id="-107450" x="-789.921562" y="-990.476103"/>
  <node id="-107463" x="-1098.320554" y="-1177.390934"/>
  <node id="-107474" x="-295.406841" y="-576.797284" shape="-295.913277,-584.607119 -289.462835,-581.888334 -288.169575,-579.775870 -288.681612,-572.794623 -294.450547,-571.568948 -300.461967,-575.155425 -295.913277,-584.607119 -295.913277,-584.607119"/>
  <node id="-107559" x="-991.252015" y="-628.291969"/>
  <node id="-107560" x="-976.583033" y="-632.364674" shape="-984.112707,-639.818130 -971.596577,-634.204581 -974.097490,-627.666581 -982.784258,-625.410782 -985.500371,-625.209205 -987.117294,-633.495753 -984.112707,-639.818130 -984.112707,-639.818130"/>
  <node id="-107562" x="-934.695812" y="-620.20753" shape="-940.650635,-625.285924 -930.064399,-622.815213 -931.496416,-615.963256 -937.596592,-612.938729 -942.251321,-618.166874 -942.331421,-618.490708 -940.650635,-625.285924 -940.650635,-625.285924"/>
  <node id="-107563" x="-908.329502" y="-614.697133" shape="-914.465451,-619.555129 -903.793250,-617.467047 -904.981944,-610.568713 -906.461041,-608.150689 -913.454237,-607.842118 -915.897468,-612.703171 -914.465451,-619.555129 -914.465451,-619.555129"/>
  <node id="-107582" x="-560.825634" y="-610.984311" shape="-564.243826,-612.235697 -557.262286,-611.727651 -553.889329,-595.652155 -558.522578,-590.404965 -567.830753,-592.979359 -564.243826,-612.235697 -564.243826,-612.235697"/>
  <node id="-107584" x="-576.274581" y="-520.600359"/>
  <node id="-108874" x="1564.39241" y="403.128795"/>
  <node id="-109036" x="-1187.353325" y="-661.586353" shape="-1193.816131,-666.005524 -1182.994371,-664.627655 -1183.760315,-657.669686 -1188.355663,-653.824567 -1194.164157,-657.731152 -1194.760661,-659.069540 -1193.816131,-666.005524 -1193.816131,-666.005524"/>
  <node id="-109077" x="-1121.481915" y="-599.629594" shape="-1122.839689,-606.631655 -1115.925525,-605.538795 -1113.989870,-604.149745 -1115.044798,-593.702873 -1126.298586,-590.932566 -1130.642672,-595.239610 -1130.836193,-596.262681 -1129.633640,-605.691014 -1122.839689,-606.631655 -1122.839689,-606.631655"/>
  <node id="-109081" x="-1093.282419" y="-617.704761" shape="-1094.675057,-625.406096 -1087.956934,-623.439672 -1085.644679,-621.974121 -1087.045267,-611.567952 -1097.800833,-612.893687 -1096.721637,-623.338080 -1094.675057,-625.406096 -1094.675057,-625.406096"/>
  <node id="-109082" x="-1095.273218" y="-596.983034" shape="-1098.725515,-602.608347 -1094.745754,-602.206470 -1094.526464,-602.179654 -1087.597637,-601.183982 -1089.091146,-590.790742 -1092.078287,-590.896386 -1099.064839,-591.330078 -1099.780442,-592.161475 -1098.725515,-602.608347 -1098.725515,-602.608347"/>
  <node id="-109103" x="-576.4379" y="-523.326242" shape="-579.904422,-528.942800 -572.006011,-528.217138 -572.898757,-517.755159 -576.884273,-518.095253 -576.952143,-518.101488 -580.932908,-518.493292 -579.904422,-528.942800 -579.904422,-528.942800"/>
  <node id="-109106" x="-555.773688" y="-540.03479" shape="-556.476291,-547.829426 -549.959541,-545.273654 -548.145169,-544.320603 -549.523322,-533.911439 -552.353601,-532.995400 -559.353148,-533.075087 -560.261187,-535.194868 -559.248925,-545.645960 -556.476291,-547.829426 -556.476291,-547.829426"/>
  <node id="-109107" x="-555.983778" y="-521.580841" shape="-559.522921,-527.151924 -555.537405,-526.811830 -555.228037,-526.776162 -548.300943,-525.768507 -549.812425,-515.377866 -558.041502,-514.029962 -560.415667,-516.689945 -559.522921,-527.151924 -559.522921,-527.151924"/>
  <node id="-109112" x="-319.677371" y="-514.974131" shape="-323.190221,-520.561831 -315.257558,-519.875942 -316.124499,-509.411793 -320.110841,-509.742057 -320.148390,-509.745303 -324.132259,-510.104175 -323.190221,-520.561831 -323.190221,-520.561831"/>
  <node id="-109113" x="-321.078916" y="-494.340746" shape="-327.643004,-500.126526 -320.664813,-499.574389 -316.677275,-499.258882 -317.505482,-488.791596 -318.925371,-486.816635 -325.806078,-488.103444 -328.471209,-489.659240 -327.643004,-500.126526 -327.643004,-500.126526"/>
  <node id="-109579" x="1562.813632" y="378.585828"/>
  <node id="-109593" x="-1399.231387" y="-1006.570395" shape="-1401.450920,-1009.276623 -1395.641746,-1005.966678 -1399.681403,-993.115006 -1406.376106,-995.159743 -1407.063559,-995.620186 -1411.502626,-1001.032643 -1401.960251,-1008.979400 -1401.450920,-1009.276623 -1401.450920,-1009.276623"/>
  <node id="-109594" x="-1398.207545" y="-782.399116"/>
  <node id="-109597" x="-1413.171768" y="-885.824051" shape="-1410.403885,-901.966815 -1409.557630,-885.390454 -1416.216768,-884.098370 -1416.469446,-884.282844 -1424.105595,-898.018371 -1418.015594,-901.469732 -1417.396626,-901.648102 -1410.403885,-901.966815 -1410.403885,-901.966815"/>
  <node id="-109605" x="-1344.434201" y="-1162.445739"/>
  <node id="-109612" x="-1321.077346" y="-761.273317"/>
  <node id="-109614" x="-1349.720279" y="-746.735872"/>
  <node id="-109689" x="-1472.590055" y="-706.01084" shape="-1472.895771,-709.638034 -1459.673393,-708.213034 -1459.463529,-699.877860 -1465.486456,-696.310740 -1474.246738,-702.769636 -1474.498839,-703.077149 -1472.895771,-709.638034 -1472.895771,-709.638034"/>
  <node id="-109690" x="-1478.37843" y="-707.149374"/>
  <node id="-109692" x="-1565.338018" y="-715.246466"/>
  <node id="-109696" x="-1591.270145" y="-680.744732"/>
  <node id="-109706" x="-1513.318944" y="-651.010551" shape="-1475.016303,-659.382123 -1472.477514,-652.858738 -1473.719060,-642.168299 -1485.850551,-642.672190 -1514.646579,-645.833691 -1513.987363,-656.312976 -1475.016303,-659.382123 -1475.016303,-659.382123"/>
  <node id="-109709" x="-1575.764331" y="-654.938779" shape="-1575.586207,-660.250866 -1571.442614,-659.927292 -1572.101830,-649.448006 -1576.093939,-649.699136 -1581.005764,-655.820471 -1575.586207,-660.250866 -1575.586207,-660.250866"/>
  <node id="-109710" x="-1588.191996" y="-670.141133"/>
  <node id="-110054" x="-1493.614387" y="-2.531907" shape="-1494.040289,-13.010509 -1486.093090,-4.695259 -1487.370927,2.187119 -1487.638956,2.522222 -1494.072431,5.280915 -1504.199871,-2.087455 -1502.166617,-8.785655 -1500.617347,-10.614197 -1494.040289,-13.010509 -1494.040289,-13.010509"/>
  <node id="-110055" x="-1513.586457" y="-8.594473" shape="-1511.614268,-13.530106 -1505.871630,-9.910319 -1507.904884,-3.212120 -1507.959567,-3.154977 -1514.561920,-0.829264 -1518.216616,-11.204382 -1511.614268,-13.530106 -1511.614268,-13.530106"/>
  <node id="-110169" x="-1225.657902" y="590.213035" shape="-1227.316698,582.564611 -1220.534440,584.296944 -1218.493891,587.062329 -1218.838931,594.053820 -1224.166839,597.971074 -1230.868300,595.948594 -1232.872962,593.245017 -1232.412523,586.260177 -1227.316698,582.564611 -1227.316698,582.564611"/>
  <node id="-110489" x="518.845847" y="-157.41026" shape="520.837126,-173.667099 522.330567,-157.736950 522.423901,-156.741283 515.836847,-155.622546 515.454455,-156.087966 507.546459,-168.559754 512.869829,-173.105272 520.837126,-173.667099 520.837126,-173.667099"/>
  <node id="-111182" x="-1234.76903" y="-667.791847" shape="-1237.281678,-672.475499 -1227.420672,-670.484732 -1228.205707,-663.528892 -1228.255799,-663.452743 -1234.332375,-659.977800 -1239.744771,-665.923158 -1237.281678,-672.475499 -1237.281678,-672.475499"/>
  <node id="-111189" x="-988.681595" y="-638.114281" shape="-989.317873,-641.698294 -972.645853,-641.446692 -972.719089,-634.447075 -978.085327,-629.203485 -990.034800,-634.735104 -990.183889,-634.953092 -989.317873,-641.698294 -989.317873,-641.698294"/>
  <node id="-111573" x="-942.549804" y="173.160099" shape="-945.893469,169.028525 -938.898642,169.297585 -936.069013,173.995192 -937.987669,180.727113 -946.237123,180.155761 -946.239515,175.894732 -945.893469,169.028525 -945.893469,169.028525"/>
  <node id="-111574" x="-916.449318" y="172.582787" shape="-919.711186,168.386334 -912.722993,168.792733 -912.955222,172.785987 -913.159275,176.294749 -913.922245,182.933580 -920.876471,182.134363 -923.229824,181.744590 -924.981420,174.967282 -919.711186,168.386334 -919.711186,168.386334"/>
  <node id="-111982" x="-274.72476" y="103.870577" shape="-269.179550,95.006047 -264.607898,97.896830 -266.011360,104.754693 -273.169020,107.161424 -277.784232,101.898362 -272.373536,97.105299 -269.179550,95.006047 -269.179550,95.006047"/>
  <node id="1096665704" x="-863.880492" y="-493.804056" shape="-863.296417,-502.139228 -857.427985,-498.232956 -861.605084,-489.000670 -868.339325,-490.911167 -869.314957,-498.564710 -863.296417,-502.139228 -863.296417,-502.139228"/>
  <node id="1096665737" x="-529.264954" y="-584.235372" shape="-534.911939,-588.892174 -525.040052,-587.460306 -525.507731,-580.475947 -532.096545,-576.939339 -537.309538,-582.315585 -534.911939,-588.892174 -534.911939,-588.892174"/>
  <node id="1096665762" x="-521.500691" y="-443.598804" shape="-524.735920,-453.687575 -517.088347,-446.555954 -517.979462,-439.612906 -519.881088,-439.856973 -521.954911,-440.128403 -522.077284,-440.146625 -531.940653,-441.794032 -530.787467,-448.698391 -530.321228,-449.468056 -524.735920,-453.687575 -524.735920,-453.687575"/>
  <node id="1096665807" x="-1234.079245" y="616.253152" shape="-1232.871606,602.557648 -1227.047894,607.490782 -1230.802898,617.484228 -1230.844007,617.588531 -1231.225544,618.512884 -1237.572772,616.465914 -1237.696020,615.842127 -1239.614078,604.438892 -1232.871606,602.557648 -1232.871606,602.557648"/>
  <node id="1096665856" x="-323.874936" y="-473.467568" shape="-326.920790,-475.191741 -320.289310,-474.094694 -318.680170,-461.047246 -325.618218,-460.118000 -327.233154,-460.430223 -333.324862,-463.878569 -327.250647,-474.829396 -326.920790,-475.191741 -326.920790,-475.191741"/>
  <node id="1096665893" x="-1230.324241" y="606.259706" shape="-1230.785715,595.674951 -1223.160551,597.562304 -1221.546054,604.373574 -1227.399630,608.426882 -1233.952324,605.964729 -1230.785715,595.674951 -1230.785715,595.674951"/>
  <node id="1096665900" x="-554.065021" y="-511.996926"/>
  <node id="1096665923" x="-206.159645" y="-429.644834" shape="-215.927599,-433.748134 -205.946210,-433.138320 -205.863292,-433.132265 -201.877657,-432.793576 -202.470363,-425.818714 -210.141119,-421.119987 -216.213393,-424.602442 -216.354469,-426.761161 -215.927599,-433.748134 -215.927599,-433.748134"/>
  <node id="1096665943" x="-370.013209" y="-429.309356" shape="-357.201392,-438.186536 -353.419959,-432.295800 -353.671663,-430.406564 -354.706073,-423.483415 -371.007548,-425.807744 -371.018867,-432.807735 -357.201392,-438.186536 -357.201392,-438.186536"/>
  <node id="1107904560" x="-517.957985" y="962.368585" shape="-521.558886,953.173679 -513.841009,959.006962 -514.079610,966.002895 -518.077285,965.866551 -518.295969,965.852228 -528.249234,964.886558 -527.560371,956.776757 -521.558886,953.173679 -521.558886,953.173679"/>
  <node id="1107904566" x="-1112.158659" y="575.249647" shape="-1121.152863,566.331252 -1108.921449,571.034143 -1107.550743,577.898629 -1111.473306,578.681890 -1111.579293,578.701362 -1124.399947,580.853294 -1125.558680,573.949864 -1125.703742,571.650040 -1121.152863,566.331252 -1121.152863,566.331252"/>
  <node id="1107904581" x="-11.229675" y="600.59326" shape="-7.468036,589.077950 -3.789817,594.334985 -7.980462,602.234180 -8.163467,602.280970 -14.690206,601.117400 -14.855341,600.916591 -16.187750,591.230168 -7.468036,589.077950 -7.468036,589.077950"/>
  <node id="1107904582" x="-356.110261" y="959.095921"/>
  <node id="1107904605" x="-1246.449457" y="646.22261" shape="-1249.303158,643.962878 -1242.971349,645.831761 -1242.032471,649.266310 -1245.620953,655.276534 -1252.520992,651.160876 -1249.303158,643.962878 -1249.303158,643.962878"/>
  <node id="1107904630" x="-1231.642606" y="653.743127" shape="-1233.032228,648.612927 -1226.742269,651.684803 -1228.497627,655.279065 -1228.608760,655.488343 -1232.099193,661.556035 -1238.863209,658.076999 -1238.062335,651.122964 -1233.032228,648.612927 -1233.032228,648.612927"/>
  <node id="1107904669" x="-901.166327" y="542.287122" shape="-895.178189,531.497441 -888.926542,534.612340 -887.877970,543.819807 -901.510522,545.910867 -903.340196,539.544077 -895.178189,531.497441 -895.178189,531.497441"/>
  <node id="1107904694" x="550.823293" y="-276.285627" shape="542.024552,-282.187504 552.562785,-279.483152 551.360094,-272.827037 551.035624,-272.651770 544.290854,-269.887730 539.676809,-275.151815 542.024552,-282.187504 542.024552,-282.187504"/>
  <node id="1107904704" x="16.948541" y="606.583414" shape="10.034609,587.153017 19.652792,587.453933 20.445494,606.437390 20.445138,606.737728 20.401048,607.736756 13.407855,607.428127 7.545198,593.073585 10.034609,587.153017 10.034609,587.153017"/>
  <node id="1107904737" x="-1113.554661" y="542.709307" shape="-1113.129956,539.094113 -1112.005346,546.003184 -1121.365406,550.714752 -1127.397131,547.162529 -1126.709106,539.843895 -1113.129956,539.094113 -1113.129956,539.094113"/>
  <node id="1107904747" x="-905.186526" y="506.766437" shape="-896.556796,500.620075 -893.823572,507.885883 -898.172558,513.370983 -908.220654,511.130388 -909.914618,504.338445 -896.556796,500.620075 -896.556796,500.620075"/>
  <node id="1107904767" x="549.197733" y="-254.769768" shape="545.802887,-261.265394 553.571199,-257.790165 552.771949,-250.835943 546.063294,-247.598625 541.580155,-252.974634 541.072328,-256.105761 545.802887,-261.265394 545.802887,-261.265394"/>
  <node id="1119054203" x="1466.854663" y="411.981048" shape="1458.225411,404.023159 1467.424114,408.385812 1468.270537,415.334449 1467.277874,415.455367 1467.030603,415.476623 1454.047039,416.130115 1452.811767,408.460777 1458.225411,404.023159 1458.225411,404.023159"/>
  <node id="1119054206" x="925.906563" y="484.432227" shape="923.400216,479.745199 930.219412,481.325889 932.676183,488.359343 926.826642,492.204193 925.655633,492.254441 919.498234,488.924811 923.400216,479.745199 923.400216,479.745199"/>
  <node id="1119054231" x="1462.74613" y="376.834049" shape="1463.378891,373.249413 1464.102650,380.211897 1455.754924,386.857249 1449.676548,383.479531 1449.407174,375.011346 1462.302162,373.362321 1462.384251,373.352807 1463.378891,373.249413 1463.378891,373.249413"/>
  <node id="1119054233" x="1426.778581" y="413.997694" shape="1433.850735,404.314343 1439.586704,408.326657 1439.938023,416.840068 1426.954444,417.493273 1426.411828,417.478426 1425.417333,417.373639 1426.150839,410.412176 1433.850735,404.314343 1433.850735,404.314343"/>
  <node id="1119054246" x="1390.248337" y="410.148627" shape="1376.335337,402.039105 1391.609585,406.772682 1390.957101,413.576112 1390.876079,413.734145 1375.288597,416.816174 1373.353758,408.314592 1376.335337,402.039105 1376.335337,402.039105"/>
  <node id="1119054271" x="951.096281" y="509.481208" shape="944.711976,502.352491 951.816449,505.913105 952.659933,506.349915 952.369853,512.891195 941.749475,514.469917 939.815381,507.354826 944.711976,502.352491 944.711976,502.352491"/>
  <node id="1119054288" x="1297.104014" y="268.640499" shape="1300.071433,266.532319 1304.238794,276.472798 1297.256417,280.324550 1292.234529,275.448010 1293.470752,268.862770 1300.071433,266.532319 1300.071433,266.532319"/>
  <node id="1119054298" x="1280.160984" y="277.115042" shape="1282.676344,274.681328 1282.897337,274.714548 1288.857067,277.431959 1289.707578,284.300561 1281.256964,287.653013 1276.569480,277.707577 1282.676344,274.681328 1282.676344,274.681328"/>
  <node id="1119054332" x="908.822251" y="516.02581" shape="910.500165,505.564710 916.657564,508.894340 918.169057,511.037101 919.239996,517.954694 909.357720,519.484606 909.341717,519.487046 905.386019,520.080722 904.347086,513.158250 910.500165,505.564710 910.500165,505.564710"/>
  <node id="1119054351" x="1334.546246" y="378.375171" shape="1334.292200,373.066173 1342.526247,373.440873 1345.672147,379.694137 1344.543990,381.881610 1340.175211,387.350958 1332.361857,381.109845 1332.025400,380.803202 1329.250507,377.922235 1334.292200,373.066173 1334.292200,373.066173"/>
  <node id="1135292449" x="-1464.752432" y="-628.840154" shape="-1468.254901,-634.434366 -1454.360967,-633.265078 -1455.209276,-622.799402 -1462.520403,-618.775691 -1469.216354,-623.978478 -1468.254901,-634.434366 -1468.254901,-634.434366"/>
  <node id="1135292484" x="-1002.315886" y="-570.489154"/>
  <node id="1135292485" x="-1231.120343" y="-645.281857" shape="-1233.062491,-652.863286 -1226.220489,-651.384433 -1223.993980,-648.516814 -1224.256560,-641.521740 -1234.709432,-641.361596 -1235.482339,-648.318795 -1233.062491,-652.863286 -1233.062491,-652.863286"/>
  <node id="1135292495" x="-1250.367155" y="-584.966375" shape="-1242.889750,-594.038862 -1240.015796,-587.224552 -1240.866895,-580.276486 -1254.756819,-581.969568 -1253.920140,-588.919386 -1245.198097,-593.635878 -1242.889750,-594.038862 -1242.889750,-594.038862"/>
  <node id="1135292514" x="-981.758588" y="-554.746173" shape="-984.713372,-564.920614 -977.361352,-557.731858 -978.215621,-550.784180 -992.083105,-552.368286 -991.312517,-559.325742 -990.413316,-560.857285 -984.713372,-564.920614 -984.713372,-564.920614"/>
  <node id="1138832886" x="824.843342" y="-256.141167" shape="815.022369,-260.115899 825.010903,-259.637154 825.027572,-259.636315 829.022026,-259.425767 828.653567,-252.435471 820.869180,-247.585715 814.850414,-251.159853 814.687248,-253.123925 815.022369,-260.115899 815.022369,-260.115899"/>
  <node id="1138832887" x="507.842995" y="-283.302391" shape="509.373131,-293.786125 512.080108,-292.244517 513.742033,-285.444664 511.378065,-282.434475 504.382999,-282.171716 502.501419,-292.452121 509.373131,-293.786125 509.373131,-293.786125"/>
  <node id="1138832895" x="828.329008" y="-225.144375" shape="818.402122,-235.990454 830.061329,-228.345791 828.549484,-221.511003 812.006558,-223.792476 812.392541,-233.906000 818.402122,-235.990454 818.402122,-235.990454"/>
  <node id="1138832951" x="520.239148" y="-286.442462" shape="517.907004,-291.218559 528.020854,-287.276160 525.575130,-280.717316 518.856172,-278.739386 515.195741,-284.764951 517.907004,-291.218559 517.907004,-291.218559"/>
  <node id="1138832964" x="1005.806292" y="-237.953202" shape="1005.165569,-241.536423 1006.160436,-241.435239 1006.941323,-241.264048 1019.238753,-237.048218 1017.751081,-229.891128 1010.911434,-228.401419 1003.842323,-235.056164 1005.165569,-241.536423 1005.165569,-241.536423"/>
  <node id="1138832966" x="1198.891083" y="-214.340269" shape="1201.182663,-227.606718 1202.720586,-227.246057 1208.683912,-223.580168 1199.913305,-209.124422 1193.857087,-212.634724 1194.212233,-226.963991 1201.182663,-227.606718 1201.182663,-227.606718"/>
  <node id="1138832986" x="-282.233469" y="-608.051714" shape="-283.080771,-615.831950 -276.517661,-613.397697 -275.006516,-611.055237 -275.494479,-604.072265 -280.561839,-603.006354 -287.012282,-605.725139 -283.080771,-615.831950 -283.080771,-615.831950"/>
  <node id="1140435720" x="-206.310494" y="826.829703" shape="-199.826869,816.568543 -195.928440,824.717132 -204.878228,830.176136 -209.581961,825.585715 -209.294496,824.745060 -206.293319,816.937173 -199.826869,816.568543 -199.826869,816.568543"/>
  <node id="1164709111" x="72.922532" y="774.63183" shape="76.906464,771.113552 76.938516,778.113478 73.130486,781.752214 66.386480,779.876477 66.082022,778.434122 65.776392,771.440797 72.769717,771.135168 72.906506,771.131867 76.906464,771.113552 76.906464,771.113552"/>
  <node id="1164709121" x="-17.581242" y="740.783722" shape="-20.895872,736.628818 -13.903102,736.946889 -7.844545,749.642973 -13.414347,753.882939 -14.672166,753.928579 -21.665017,753.612314 -21.077668,740.625589 -20.895872,736.628818 -20.895872,736.628818"/>
  <node id="1164709143" x="1063.89151" y="-218.040304" shape="1049.891244,-226.539865 1065.026541,-221.351150 1065.094418,-221.327098 1066.033502,-220.983409 1063.627686,-214.409822 1050.570374,-213.295945 1046.022308,-218.035031 1049.891244,-226.539865 1049.891244,-226.539865"/>
  <node id="1164709144" x="1206.07157" y="113.184946" shape="1208.528475,110.692233 1215.382178,114.643834 1213.707376,121.440527 1206.916880,123.745981 1202.870847,114.601058 1202.828479,114.501138 1202.452424,113.574541 1208.528475,110.692233 1208.528475,110.692233"/>
  <node id="1164709151" x="508.982163" y="-252.975935"/>
  <node id="1164709156" x="1047.737954" y="-195.867448" shape="1040.870921,-205.249605 1047.851858,-204.733355 1052.710505,-197.744610 1050.258577,-191.188083 1037.145351,-196.083714 1039.592188,-202.642143 1040.870921,-205.249605 1040.870921,-205.249605"/>
  <node id="1164709158" x="1227.98836" y="99.494392" shape="1230.814655,97.200475 1231.207290,98.120169 1231.237069,98.192129 1237.190269,113.043372 1230.692851,115.647897 1228.004484,116.646619 1222.853554,111.906585 1224.376795,99.948921 1230.814655,97.200475 1230.814655,97.200475"/>
  <node id="1164709161" x="524.176563" y="756.292503" shape="525.697429,745.807420 532.548980,748.256355 533.035150,755.239451 526.293116,759.253956 520.814948,754.896241 525.697429,745.807420 525.697429,745.807420"/>
  <node id="1164709183" x="193.118017" y="812.221265" shape="198.001545,805.588280 204.220596,808.801286 202.220265,817.643358 191.625276,815.541163 191.912117,808.935568 198.001545,805.588280 198.001545,805.588280"/>
  <node id="1164709184" x="539.957859" y="726.032726" shape="537.310697,723.534220 543.416556,726.568836 543.525415,726.755599 543.928428,733.476868 538.414454,737.789185 532.230360,733.280881 537.310697,723.534220 537.310697,723.534220"/>
  <node id="1164709185" x="1001.650376" y="-213.061924" shape="1009.780691,-218.868161 1014.013034,-214.220089 1009.796142,-206.287229 1000.134329,-209.752604 1000.743023,-216.442266 1001.189266,-216.672655 1009.780691,-218.868161 1009.780691,-218.868161"/>
  <node id="1231756279" x="-1106.712175" y="-1177.086148"/>
  <node id="1401134179" x="227.971504" y="799.43305" shape="218.875544,794.000415 232.564283,796.757909 231.232632,803.630078 222.104777,807.176314 216.701153,803.539253 218.875544,794.000415 218.875544,794.000415"/>