<?xml version='1.0' encoding='UTF-8'?>
<nodes>
  <node id="2113341940" x="149.455845" y="301.89308" shape="152.235932,297.363056 152.828973,297.785525 153.974810,304.691107 153.486744,305.357450 146.557209,306.348179 145.334948,298.536265 152.235932,297.363056 152.235932,297.363056"/>
  <node id="2180585469" x="-161.330171" y="-468.909208" shape="-158.331196,-476.392934 -156.405210,-462.526046 -164.267982,-461.401261 -166.307052,-475.251972 -162.349706,-475.834563 -162.293164,-475.842652 -158.331196,-476.392934 -158.331196,-476.392934"/>
  <node id="2265959610" x="-154.345805" y="-412.04008" shape="-151.407659,-416.469222 -150.897072,-416.084365 -149.879514,-409.158719 -150.338793,-408.548110 -157.274969,-407.604993 -157.813893,-411.568522 -158.345731,-415.540164 -151.407659,-416.469222 -151.407659,-416.469222"/>
  <node id="2286069615" x="-25.840988" y="460.078602"/>
  <node id="2434287917" x="-98.563672" y="-477.662878" shape="-92.818654,-485.724812 -90.501738,-471.917860 -97.405214,-470.759402 -97.596186,-470.730060 -104.529004,-469.762573 -106.463977,-483.628210 -92.818654,-485.724812 -92.818654,-485.724812"/>
  <node id="268511171" x="-115.989972" y="-583.546483" shape="-111.384350,-588.274141 -106.222418,-581.797974 -107.904646,-575.073916 -109.185503,-574.531956 -119.546084,-572.826569 -121.170263,-582.693789 -121.183045,-582.775452 -121.770497,-586.732080 -111.384350,-588.274141 -111.384350,-588.274141"/>
  <node id="268615862" x="95.636943" y="-227.15118" shape="98.587706,-231.571926 99.169201,-231.122723 100.042223,-224.177377 99.687703,-223.710054 92.763981,-222.679481 92.094660,-223.188576 91.239192,-230.136106 91.647013,-230.662655 98.587706,-231.571926 98.587706,-231.571926"/>
  <node id="268620937" x="-228.201703" y="36.004628" shape="-225.321812,31.537388 -224.785422,31.932893 -223.712513,38.850181 -224.169510,39.467491 -231.098674,40.460810 -231.609194,40.083722 -232.697021,33.168765 -232.247123,32.557227 -225.321812,31.537388 -225.321812,31.537388"/>
  <node id="268621340" x="123.62468" y="-18.649465"/>
  <node id="268621359" x="110.822863" y="-125.127313" shape="113.695825,-129.599012 114.284724,-125.642600 114.297837,-125.545109 114.775318,-121.573709 107.825369,-120.738118 107.398377,-121.062476 106.339421,-127.981914 106.772103,-128.568439 113.695825,-129.599012 113.695825,-129.599012"/>
  <node id="268622218" x="138.815255" y="94.679623" shape="141.750147,90.248324 142.303030,90.668959 143.253405,97.604144 142.791717,98.206342 135.847595,99.089044 135.327559,98.690355 134.377047,91.755189 134.812759,91.182478 141.750147,90.248324 141.750147,90.248324"/>
  <node id="268633522" x="266.104163" y="284.534117" shape="268.984618,280.067241 269.599600,280.530129 270.536713,287.467118 270.149488,287.981629 263.224150,289.001278 262.609378,288.538674 261.671135,281.601838 262.059178,281.086205 268.984618,280.067241 268.984618,280.067241"/>
  <node id="268636314" x="-291.659086" y="265.000923" shape="-288.780527,260.532825 -288.140007,261.017698 -287.243977,267.960114 -287.678010,268.522434 -294.620971,269.414225 -295.705533,261.554727 -288.780527,260.532825 -288.780527,260.532825"/>
  <node id="268639104" x="252.132204" y="189.572996" shape="255.012463,185.105994 255.585184,185.532336 256.595466,192.459048 256.177189,193.020908 249.251749,194.039872 248.679301,193.613721 247.668887,186.687029 248.087068,186.125261 255.012463,185.105994 255.012463,185.105994"/>
  <node id="269826675" x="132.599149" y="-618.770735" shape="135.981822,-622.870433 137.111594,-615.962205 136.663015,-615.345097 129.743278,-614.288102 129.187157,-614.695405 128.106965,-621.611559 135.981822,-622.870433 135.981822,-622.870433"/>
  <node id="269830124" x="42.563253" y="-604.708566" shape="45.975245,-608.783896 47.055437,-601.867742 46.670087,-601.334560 39.764260,-600.190199 39.276723,-600.531399 37.986787,-607.411520 41.918285,-608.148627 42.023157,-608.166643 45.975245,-608.783896 45.975245,-608.783896"/>
  <node id="269830435" x="220.288448" y="-633.111444" shape="219.723562,-636.565558 223.729549,-633.750839 224.460285,-629.818152 217.578084,-628.539363 216.905775,-629.011746 215.776003,-635.919974 219.723562,-636.565558 219.723562,-636.565558"/>
  <node id="269956908" x="360.050023" y="271.843037" shape="362.916089,267.366915 364.107035,275.276789 357.185199,276.319954 356.554586,275.847025 355.617473,268.910036 355.993964,268.408159 362.916089,267.366915 362.916089,267.366915"/>
  <node id="269956909" x="345.623585" y="175.936996" shape="348.489559,171.460815 349.084637,175.416303 349.679644,179.371874 342.757519,180.413118 342.170605,179.977656 341.160323,173.050944 341.567455,172.502202 348.489559,171.460815 348.489559,171.460815"/>
  <node id="269956910" x="312.875805" y="-41.737775" shape="315.720015,-46.227816 316.334288,-42.275264 316.336857,-42.258468 316.931935,-38.302981 310.009831,-37.261594 309.437328,-37.684767 308.402229,-44.607813 308.803048,-45.152838 315.720015,-46.227816 315.720015,-46.227816"/>
  <node id="269956911" x="279.98642" y="-253.365025" shape="282.868957,-257.830557 284.059177,-249.949962 277.142210,-248.874984 276.583157,-249.282403 275.488167,-256.196230 275.943043,-256.814823 282.868957,-257.830557 282.868957,-257.830557"/>
  <node id="269986908" x="-310.78374" y="-448.075864" shape="-316.897513,-458.499828 -304.820245,-455.977555 -302.882049,-442.112369 -312.311599,-440.400211 -322.496496,-439.086351 -324.736135,-452.906048 -323.268914,-455.600647 -316.897513,-458.499828 -316.897513,-458.499828"/>
  <node id="269987044" x="-196.495685" y="252.718561" shape="-193.624138,248.245953 -188.852786,251.034491 -190.562689,257.822438 -191.973861,259.106292 -198.892775,260.168659 -200.014764,256.701786 -200.910794,249.759370 -200.547533,249.278717 -193.624138,248.245953 -193.624138,248.245953"/>
  <node id="269987046" x="-278.153008" y="-285.698562" shape="-275.292292,-290.178105 -274.853947,-289.865838 -273.584682,-282.981874 -274.092647,-282.268771 -281.013461,-281.218851 -281.613415,-285.173602 -282.213168,-289.128592 -275.292292,-290.178105 -275.292292,-290.178105"/>
  <node id="269987047" x="-261.866996" y="-178.345096" shape="-259.006543,-182.824807 -258.413462,-182.385282 -257.404130,-175.458432 -257.756485,-174.975571 -264.661059,-173.823679 -265.363903,-174.342391 -266.298470,-181.279724 -265.927357,-181.774887 -259.006543,-182.824807 -259.006543,-182.824807"/>
  <node id="269987048" x="-212.891791" y="142.803071" shape="-209.994820,138.346889 -209.420658,138.777995 -208.441566,145.709184 -208.839943,146.242915 -215.763338,147.275679 -216.384246,146.809660 -217.326524,139.873371 -216.923984,139.340208 -209.994820,138.346889 -209.994820,138.346889"/>
  <node id="269987745" x="0.909334" y="670.983806" shape="3.846186,666.553806 4.440846,667.011600 5.315173,673.956782 -2.566232,675.005055 -3.537687,668.072792 -3.091615,667.484891 3.846186,666.553806 3.846186,666.553806"/>
  <node id="269988226" x="-135.710945" y="690.129139"/>
  <node id="269988227" x="411.649938" y="615.389179" shape="414.521402,610.916518 415.111626,614.872733 412.172952,618.849881 408.217865,619.447611 407.171836,612.526208 407.598026,611.949410 414.521402,610.916518 414.521402,610.916518"/>
  <node id="269988896" x="-355.148791" y="-165.778585" shape="-352.327916,-170.283323 -351.651884,-169.781290 -350.717317,-162.843957 -351.083139,-162.355067 -358.002324,-161.294463 -359.239211,-169.172471 -352.327916,-170.283323 -352.327916,-170.283323"/>
  <node id="269988897" x="-321.957724" y="50.753864" shape="-319.104191,46.269742 -318.550233,46.674770 -317.462406,53.589727 -317.953989,54.249591 -324.891046,55.186202 -326.023376,47.330346 -319.104191,46.269742 -319.104191,46.269742"/>
  <node id="269988898" x="-307.789078" y="155.694637" shape="-304.855756,151.262299 -304.296623,151.688048 -303.354345,158.624337 -303.742631,159.140833 -310.667637,160.162735 -311.251581,156.205588 -311.257606,156.162943 -311.792813,152.198910 -304.855756,151.262299 -304.855756,151.262299"/>
  <node id="269988899" x="-230.420985" y="702.356406"/>
  <node id="269990904" x="-260.409616" y="481.546866"/>
  <node id="269994000" x="184.212167" y="416.78315" shape="181.737088,412.079536 188.156295,413.220307 188.267037,420.219431 188.200539,420.296394 181.259443,421.202587 179.221628,418.611953 181.737088,412.079536 181.737088,412.079536"/>
  <node id="269994072" x="215.257732" y="644.189717" shape="218.148182,639.729302 218.724298,640.160707 219.711250,647.090781 215.751208,647.654754 215.690117,647.662906 211.720758,648.157061 210.855988,641.210682 211.220478,640.732756 218.148182,639.729302 218.148182,639.729302"/>
  <node id="269994176" x="285.325915" y="415.183303" shape="288.208432,410.717757 289.371006,418.631091 282.445597,419.650267 281.381787,418.746146 281.271045,411.747022 281.282522,411.733524 288.208432,410.717757 288.208432,410.717757"/>
  <node id="269994178" x="316.262234" y="629.80508" shape="319.188849,625.368311 319.694307,625.746648 320.740336,632.668051 316.785248,633.265782 316.755710,633.270117 312.795668,633.834090 311.808716,626.904016 312.253217,626.315412 319.188849,625.368311 319.188849,625.368311"/>
  <node id="270209015" x="-292.837699" y="-382.534843" shape="-290.518423,-387.317202 -289.520946,-386.688052 -288.280967,-379.798752 -288.777539,-379.104813 -295.698415,-378.055300 -296.211020,-378.427446 -297.356533,-385.333082 -297.269868,-385.468421 -290.518423,-387.317202 -290.518423,-387.317202"/>
  <node id="270209089" x="-77.494852" y="-422.93601" shape="-74.744785,-427.484321 -74.048315,-423.545421 -74.034246,-423.459659 -73.435791,-419.504681 -80.357002,-418.457383 -80.975528,-418.919184 -81.938168,-425.852677 -81.637859,-426.265498 -74.744785,-427.484321 -74.744785,-427.484321"/>
  <node id="270209145" x="-386.037813" y="-364.928682" shape="-383.164280,-369.400014 -382.843769,-369.176985 -381.403117,-362.326838 -381.987376,-361.487176 -388.911195,-360.457253 -389.499722,-364.413720 -390.088133,-368.370325 -383.164280,-369.400014 -383.164280,-369.400014"/>
  <node id="270209315" x="-243.966126" y="-71.045213" shape="-241.172063,-75.566630 -240.535159,-75.104580 -239.487244,-68.183462 -239.920706,-67.597812 -246.846017,-66.577973 -248.076637,-74.414738 -241.172063,-75.566630 -241.172063,-75.566630"/>
  <node id="270209443" x="201.509" y="549.27042" shape="204.461724,544.850983 204.947392,545.217340 205.982636,552.140365 205.546254,552.727381 198.618550,553.730835 198.045148,549.772147 198.038452,549.723516 197.520628,545.757176 204.461724,544.850983 204.461724,544.850983"/>
  <node id="270209444" x="302.833741" y="534.118691" shape="305.713373,529.651285 306.296367,533.608572 306.878781,537.566538 299.953358,538.585613 299.395349,538.171771 298.360105,531.248746 298.788121,530.671524 305.713373,529.651285 305.713373,529.651285"/>
  <node id="270209445" x="298.3957" y="503.993832" shape="301.276018,499.526868 301.889404,499.988332 302.829519,506.924915 302.441320,507.440999 295.516068,508.461238 294.933074,504.503951 294.350609,500.546044 301.276018,499.526868 301.276018,499.526868"/>
  <node id="270209446" x="393.038715" y="491.16687" shape="395.904916,486.690835 397.094674,494.601866 390.172519,495.642909 389.545011,495.172370 388.604896,488.235787 388.982760,487.731870 395.904916,486.690835 395.904916,486.690835"/>
  <node id="270209447" x="307.861265" y="568.284711" shape="310.741648,563.817789 311.398543,564.317638 312.262781,571.264083 311.870282,571.774379 304.934650,572.721480 303.816225,564.836864 310.741648,563.817789 310.741648,563.817789"/>
  <node id="270209464" x="402.85918" y="556.465589" shape="405.725376,551.989550 406.320257,555.945067 406.911092,559.905358 399.987716,560.938250 399.321902,560.432662 398.457664,553.486217 398.803221,553.030593 405.725376,551.989550 405.725376,551.989550"/>
  <node id="2812606360" x="-153.733545" y="-407.5372" shape="-150.804381,-411.972287 -150.265457,-408.008758 -149.733297,-404.037483 -156.671284,-403.107788 -157.051334,-403.384818 -158.289595,-410.274426 -157.740557,-411.029170 -150.804381,-411.972287 -150.804381,-411.972287"/>
  <node id="30341011" x="239.728883" y="-527.866219" shape="241.976460,-535.362778 242.676484,-535.236183 244.642889,-518.479923 237.716975,-517.464189 236.767454,-520.367556 234.771991,-534.224617 241.976460,-535.362778 241.976460,-535.362778"/>
  <node id="30341012" x="148.450661" y="-514.721851" shape="151.412090,-522.220514 153.407553,-508.363453 145.490083,-507.222853 143.493048,-521.079687 147.452144,-521.650268 151.412090,-522.220514 151.412090,-522.220514"/>
  <node id="30341013" x="59.518005" y="-501.904957" shape="62.478583,-509.403955 64.475618,-495.547121 56.611582,-494.384804 54.514672,-508.226876 58.469550,-508.825993 58.519488,-508.833374 62.478583,-509.403955 62.478583,-509.403955"/>
  <node id="30341018" x="-396.296188" y="-433.90825" shape="-393.501780,-441.470742 -391.199510,-427.661341 -395.145053,-427.003550 -399.169721,-429.436918 -400.361125,-437.332617 -397.447323,-440.812950 -393.501780,-441.470742 -393.501780,-441.470742"/>
  <node id="30385203" x="-84.63432" y="-479.994203"/>
  <node id="30594530" x="3.235273" y="113.261773" shape="6.103095,108.786776 6.722969,109.251041 7.673481,116.186207 7.295847,116.691312 0.375098,117.741661 -0.253274,117.271766 -1.202315,110.336399 -0.819438,109.825304 6.103095,108.786776 6.103095,108.786776"/>
  <node id="30594539" x="152.721528" y="204.074276" shape="155.689152,199.664830 156.174431,200.033551 157.184845,206.960243 156.196238,214.083092 149.196260,214.065396 147.028391,213.009498 142.698915,207.508986 148.745036,200.547590 155.689152,199.664830 155.689152,199.664830"/>
  <node id="30594548" x="80.350044" y="-343.839836" shape="83.297381,-348.262867 83.797709,-347.885032 84.817096,-340.959655 84.339974,-340.328361 77.399281,-339.419090 76.882795,-339.811414 75.897018,-346.741656 76.357394,-347.348218 83.297381,-348.262867 83.297381,-348.262867"/>
  <node id="30594809" x="171.639218" y="-357.277234" shape="174.519029,-361.744525 175.101864,-357.787215 175.110561,-357.724199 175.621378,-353.756950 168.678692,-352.863020 168.191553,-353.232038 167.172166,-360.157415 167.593736,-360.724563 174.519029,-361.744525 174.519029,-361.744525"/>
  <node id="30594812" x="220.126138" y="-27.870313" shape="222.960866,-32.366347 223.564615,-31.923321 224.599714,-25.000275 224.171371,-24.422693 217.246005,-23.403229 216.657609,-23.842993 215.674034,-30.773548 216.046184,-31.276773 222.960866,-32.366347 222.960866,-32.366347"/>
  <node id="30956904" x="236.201803" y="81.334081" shape="239.081936,76.866997 239.664486,80.824349 240.246939,84.781816 233.321544,85.801083 232.714028,85.344745 231.763653,78.409560 232.156570,77.886461 239.081936,76.866997 239.081936,76.866997"/>
  <node id="30956914" x="-29.081199" y="-103.716275" shape="-26.228241,-108.200763 -25.656713,-107.781112 -24.597757,-100.861674 -25.033462,-100.271594 -31.958085,-99.247100 -32.505616,-99.651380 -33.564690,-106.570800 -33.147290,-107.139272 -26.228241,-108.200763 -26.228241,-108.200763"/>
  <node id="31168289" x="-62.453782" y="-323.527022" shape="-59.591554,-328.005599 -58.986533,-327.555444 -58.000756,-320.625202 -58.398001,-320.091816 -65.320210,-319.051132 -65.852213,-319.440377 -66.955381,-326.352903 -66.512784,-326.958421 -59.591554,-328.005599 -59.591554,-328.005599"/>
  <node id="3603314960" x="216.691583" y="291.217423"/>
  <node id="3714135693" x="-45.354661" y="-209.79051" shape="-42.488233,-214.266400 -41.812378,-213.753114 -40.956910,-206.805584 -41.288570,-206.367513 -48.207619,-205.306022 -48.813278,-205.754675 -49.813890,-212.682790 -49.410442,-213.225716 -42.488233,-214.266400 -42.488233,-214.266400"/>
  <node id="3772750754" x="186.916712" y="-238.624943" shape="189.877238,-243.039157 190.319975,-242.707565 191.414965,-235.793738 190.996666,-235.218483 184.081984,-234.128909 183.384454,-234.653400 182.511432,-241.598746 182.934552,-242.145227 189.877238,-243.039157 189.877238,-243.039157"/>
  <node id="3772750756" x="165.952144" y="299.171928"/>
  <node id="3772750963" x="-83.407635" y="125.643287" shape="-80.375189,121.278167 -79.974909,121.585407 -78.929993,128.506978 -79.397182,129.131304 -86.332424,130.081261 -86.952123,129.603919 -87.803725,122.655914 -87.331588,122.058236 -80.375189,121.278167 -80.375189,121.278167"/>
  <node id="3772750964" x="-96.164174" y="15.52489" shape="-93.262198,11.071965 -92.544556,11.632800 -91.826047,18.595827 -92.215605,19.082811 -99.166462,19.910807 -99.580455,19.596625 -100.653364,12.679337 -100.192474,12.057499 -93.262198,11.071965 -93.262198,11.071965"/>
  <node id="3772750965" x="-111.330866" y="-91.127292" shape="-108.393225,-95.556769 -107.906449,-95.192187 -106.847375,-88.272767 -107.302566,-87.659901 -114.232842,-86.674367 -114.761833,-87.067925 -115.809748,-93.989043 -115.331192,-94.626920 -108.393225,-95.556769 -108.393225,-95.556769"/>
  <node id="3772750969" x="-125.679683" y="-198.189355" shape="-122.741854,-202.618707 -122.221066,-202.225190 -121.220454,-195.297075 -121.679357,-194.689727 -128.617324,-193.759878 -129.133217,-194.149169 -130.142549,-201.076019 -129.679860,-201.689152 -122.741854,-202.618707 -122.741854,-202.618707"/>
  <node id="3772750970" x="-140.797311" y="-311.024198" shape="-137.859782,-315.453749 -137.398880,-315.110843 -136.295712,-308.198317 -136.797134,-307.524401 -143.735140,-306.594846 -144.096372,-306.856922 -145.365637,-313.740886 -144.797725,-314.523725 -137.859782,-315.453749 -137.859782,-315.453749"/>
  <node id="4312134532" x="64.839951" y="231.551836" shape="91.804463,223.235282 93.021938,230.128595 93.033568,230.381386 92.454183,237.357367 64.280967,235.148715 63.414322,228.202570 91.804463,223.235282 91.804463,223.235282"/>
  <node id="4312134548" x="-6.961436" y="319.083148" shape="-6.299177,305.636535 1.159204,307.416381 0.981162,308.814601 -3.354698,319.574514 -3.718140,320.398835 -10.283350,320.571397 -13.139823,307.121646 -6.299177,305.636535 -6.299177,305.636535"/>
  <node id="4312134571" x="-67.838414" y="239.307777" shape="-52.224539,234.362383 -51.585791,241.333179 -51.644446,241.758371 -54.146660,248.295873 -71.291197,243.348604 -72.301816,236.421942 -71.848867,235.819760 -64.913625,234.869803 -52.224539,234.362383 -52.224539,234.362383"/>
  <node id="4312168553" x="165.738664" y="409.669496" shape="168.461364,405.104750 170.729203,407.840693 168.213743,414.373110 162.103509,413.547079 161.412853,406.581234 161.575735,406.364951 168.461364,405.104750 168.461364,405.104750"/>
  <node id="5065075410" x="21.999146" y="236.896922" shape="24.409171,229.450998 25.535049,232.928624 26.401694,239.874769 18.718135,244.002199 14.346317,238.535279 14.174560,237.057705 17.175768,230.733723 17.488422,230.501347 24.409171,229.450998 24.409171,229.450998"/>
  <node id="5065075411" x="8.176081" y="247.951027"/>
  <node id="5065079151" x="160.458915" y="378.852704"/>
  <node id="5065079156" x="5.632041" y="406.611848" shape="8.526720,402.154177 11.367755,415.044629 5.341579,418.245020 -1.797575,414.165046 1.598068,403.151059 8.526720,402.154177 8.526720,402.154177"/>
  <node id="7966610560" x="-369.06807" y="-438.423286"/>
  <node id="7982089635" x="114.11097" y="-12.460931" shape="114.634267,-16.063175 115.569733,-9.125963 113.650988,-8.850056 112.593889,-15.769777 113.582420,-15.920792 113.643237,-15.929537 114.634267,-16.063175 114.634267,-16.063175"/>
  <node id="7982089638" x="135.705922" y="-15.889516" shape="136.204214,-19.495304 137.187788,-12.564750 135.340939,-12.267805 134.102457,-19.157375 135.086681,-19.334301 135.214135,-19.354793 136.204214,-19.495304 136.204214,-19.495304"/>
  <node id="7982089639" x="124.20497" y="-13.822083" shape="127.202558,-18.211213 127.522626,-17.974572 128.761108,-11.085003 128.207466,-10.324938 121.270078,-9.390784 120.708582,-9.818925 119.773116,-16.756137 120.252591,-17.375772 127.202558,-18.211213 127.202558,-18.211213"/>
  <node id="8251334292" x="-373.561919" y="-467.14012" shape="-372.517734,-471.488646 -370.664787,-464.391495 -374.090737,-462.326824 -377.129326,-464.443157 -377.859933,-468.375868 -376.414228,-470.584584 -372.517734,-471.488646 -372.517734,-471.488646"/>
  <node id="8251334299" x="-401.464244" y="-461.679739" shape="-398.858097,-466.312017 -397.981297,-464.484927 -397.130325,-460.576494 -397.220082,-458.480194 -404.072090,-457.048418 -405.709579,-464.877727 -398.858097,-466.312017 -398.858097,-466.312017"/>
  <node id="8256677652" x="162.168276" y="299.783719" shape="165.086483,295.341415 165.393506,295.716798 166.510784,302.627058 158.795148,303.891274 157.649311,296.985692 158.152657,296.301650 165.086483,295.341415 165.086483,295.341415"/>
  <node id="8744170927" x="-87.499854" y="-479.519474" shape="-85.778405,-486.900074 -84.053317,-480.128885 -82.312141,-470.281637 -89.205216,-469.062814 -90.286239,-471.954022 -92.603155,-485.760974 -88.658312,-486.422950 -88.643939,-486.425346 -85.778405,-486.900074 -85.778405,-486.900074"/>
  <node id="Custom87" x="-168.19872600000002" y="442.730524"/>
  <node id="Custom88" x="-328.762168" y="-564.620105"/>
  <node id="Custom89" x="-341.785172" y="-563.4323039999999"/>
  <node id="Custom90" x="-348.74427000000003" y="-483.000792"/>
  <node id="Custom91" x="-392.114438" y="-475.711702"/>
  <node id="Custom92" x="-118.373874" y="-599.078978"/>
  <node id="Custom93" x="-13.750858000000001" y="-0.09751400000000388"/>
  <node id="Custom94" x="-12.004283" y="11.679261"/>
  <node id="Custom95" x="-431.647497" y="-606.254353"/>
</nodes>
