<?xml version='1.0' encoding='UTF-8'?>
<edges>
  <edge id="-104029" from="30341011" to="269830435" numLanes="1" width="3.5" shape="238.518910,-534.816555 238.016748,-537.701079 221.019185,-629.178757 "/>
  <edge id="--104029" to="30341011" from="269830435" numLanes="1" width="3.5" shape="221.019185,-629.178757 238.016748,-537.701079 238.518910,-534.816555 "/>
  <edge id="-104035" from="269826675" to="30341012" numLanes="2" width="3.5" shape="129.743279,-614.288101 143.287478,-525.619531 143.956821,-521.129389 "/>
  <edge id="-104703" from="269987745" to="2286069615" numLanes="2" width="3.5" shape="3.846185,666.553806 -9.828918,564.656381 -11.663357,549.252362 -22.365698,459.663442 "/>
  <edge id="-104722" from="269990904" to="269988899" numLanes="2" width="3.5" shape="-263.877777,482.017885 -233.889146,702.827425 "/>
  <edge id="-104762" from="269988899" to="269988226" numLanes="2" width="3.5" shape="-229.972847,705.827598 -135.262807,693.600330 "/>
  <edge id="-104864" from="268620937" to="269988897" numLanes="2" width="3.5" shape="-232.697021,33.168765 -318.550234,46.674770 "/>
  <edge id="-105658" from="30341013" to="269830124" numLanes="2" width="3.5" shape="61.877085,-509.367343 61.128334,-514.083483 61.124541,-514.106864 46.670086,-601.334559 "/>
  <edge id="24715665" from="4312134571" to="5065075410" numLanes="2" width="3.5" shape="-51.585792,241.333180 -26.270421,239.013481 -26.188376,239.004987 3.610291,235.564640 12.265668,236.151792 14.174560,237.057705 "/>
  <edge id="24849973" from="269987044" to="Custom87" numLanes="1" width="3.5" shape="-195.433318,259.637475 -189.767136,296.539815 -187.854213,309.040692 -168.892501,432.664075 -168.198726,442.730524 "/>
  <edge id="-24849973" to="269987044" from="Custom87" numLanes="1" width="3.5" shape="-168.198726,442.730524 -168.892501,432.664075 -187.854213,309.040692 -189.767136,296.539815 -195.433318,259.637475 "/>
  <edge id="24858131" from="269986908" to="Custom88" numLanes="2" width="3.5" shape="-306.185491,-456.549202 -306.134952,-456.949256 -306.107390,-457.371766 -306.131049,-457.794512 -306.710495,-462.748762 -306.740871,-462.955023 -320.447580,-540.025406 -320.457019,-540.076293 -325.325679,-565.283839 "/>
  <edge id="24866628" from="270209015" to="2812606360" numLanes="1" width="3.5" shape="-288.900956,-383.243402 -287.682005,-383.462796 -157.670464,-406.829622 "/>
  <edge id="-24866628" to="270209015" from="2812606360" numLanes="1" width="3.5" shape="-157.670464,-406.829622 -287.682005,-383.462796 -288.900956,-383.243402 "/>
  <edge id="24866629" from="270209015" to="270209145" numLanes="1" width="3.5" shape="-296.783777,-381.880264 -337.734793,-375.087273 -382.123444,-365.751912 "/>
  <edge id="-24866629" to="270209015" from="270209145" numLanes="1" width="3.5" shape="-382.123444,-365.751912 -337.734793,-375.087273 -296.783777,-381.880264 "/>
  <edge id="24866661" from="270209443" to="270209444" numLanes="1" width="3.5" shape="205.465014,548.678853 298.877727,534.710259 "/>
  <edge id="-24866661" to="270209443" from="270209444" numLanes="1" width="3.5" shape="298.877727,534.710259 205.465014,548.678853 "/>
  <edge id="24866670" from="270209445" to="270209446" numLanes="1" width="3.5" shape="302.359462,503.456624 389.074953,491.704079 "/>
  <edge id="-24866670" to="270209445" from="270209446" numLanes="1" width="3.5" shape="389.074953,491.704079 302.359462,503.456624 "/>
  <edge id="24866679" from="270209447" to="270209464" numLanes="1" width="3.5" shape="311.830662,567.790860 398.889783,556.959440 "/>
  <edge id="-24866679" to="270209447" from="270209464" numLanes="1" width="3.5" shape="398.889783,556.959440 311.830662,567.790860 "/>
  <edge id="217323082" from="2265959610" to="270209089" numLanes="1" width="3.5" shape="-150.388292,-412.621542 -126.398107,-416.146328 -81.456847,-422.385930 "/>
  <edge id="-217323082" to="2265959610" from="270209089" numLanes="1" width="3.5" shape="-81.456847,-422.385930 -126.398107,-416.146328 -150.388292,-412.621542 "/>
  <edge id="354652706" from="3603314960" to="3772750756" numLanes="2" width="3.5" shape="216.149503,287.759656 165.410064,295.714161 "/>
  <edge id="421567701" from="269986908" to="7966610560" numLanes="4" width="3.5" shape="-324.736136,-452.906047 -333.256840,-451.525170 -333.296091,-451.518695 -343.849876,-449.746723 -370.224937,-445.327028 "/>
  <edge id="432043003" from="4312134571" to="269987044" numLanes="2" width="3.5" shape="-72.301816,236.421943 -177.393077,251.755038 -187.561408,251.359793 -188.852788,251.034491 "/>
  <edge id="432043007" from="4312134548" to="4312134571" numLanes="2" width="3.5" shape="-6.299175,305.636537 -6.331260,305.488751 -7.606262,297.664909 -8.895977,289.750817 -8.897090,289.744027 -10.775966,278.355736 -10.849027,278.017804 -10.955072,277.688728 -14.946796,267.120882 -15.079144,266.815326 -15.239931,266.523730 -15.427700,266.248734 -15.640754,265.992826 -15.877162,265.758323 -27.869319,254.944761 -28.128079,254.732942 -28.405873,254.546785 -37.029809,249.346752 -37.104817,249.302785 -47.466559,243.400781 -47.702817,243.277870 -47.947736,243.173279 -51.644447,241.758372 "/>
  <edge id="437627508" from="4312134532" to="30594539" numLanes="2" width="3.5" shape="93.021937,230.128594 133.745583,222.936116 134.081252,222.859638 134.407783,222.750552 134.722018,222.609914 135.020915,222.439084 135.301584,222.239716 147.028391,213.009498 "/>
  <edge id="457847968" from="269987044" to="268636314" numLanes="2" width="3.5" shape="-200.910795,249.759370 -288.140007,261.017698 "/>
  <edge id="519437791" from="30594539" to="8256677652" numLanes="2" width="3.5" shape="149.196260,214.065425 149.196170,214.101145 149.196162,214.105268 149.175161,229.757148 149.206566,230.229682 157.063959,288.485053 157.066255,288.501771 157.733568,293.275427 158.152657,296.301650 "/>
  <edge id="616927359" from="269986908" to="Custom89" numLanes="2" width="3.5" shape="-316.897514,-458.499829 -318.520866,-462.067397 -333.995823,-537.801644 -334.782105,-543.403824 -334.799022,-543.512028 -338.336061,-564.026975 "/>
  <edge id="616927361" from="270209015" to="269986908" numLanes="2" width="3.5" shape="-290.518424,-387.317202 -304.477977,-438.295202 -305.478835,-441.951886 "/>
  <edge id="618098751" from="2286069615" to="5065079156" numLanes="2" width="3.5" shape="-22.463989,460.998317 -20.686763,454.472717 -8.091625,437.687032 -0.384192,427.415248 -0.185527,427.120398 -0.017800,426.806914 4.416553,417.399367 "/>
  <edge id="854248813" from="7966610560" to="30341018" numLanes="4" width="3.5" shape="-370.202642,-445.330727 -380.093730,-443.706080 -380.110294,-443.703339 -393.501781,-441.470741 "/>
  <edge id="859465689" from="269988896" to="269987047" numLanes="2" width="3.5" shape="-350.717318,-162.843957 -265.363903,-174.342392 "/>
  <edge id="887488408" from="8251334292" to="Custom90" numLanes="1" width="4.0" shape="-374.090737,-462.326824 -373.372521,-461.135073 -373.260825,-460.969116 -373.133110,-460.815147 -372.990652,-460.674707 -372.834877,-460.549200 -372.667344,-460.439883 -372.489728,-460.347848 -372.303807,-460.274017 -372.111440,-460.219129 -371.914552,-460.183732 -369.538516,-459.878287 -369.327048,-459.862437 -369.115090,-459.869067 -368.905025,-459.898102 -365.989984,-460.459903 -365.782736,-460.511457 -365.582166,-460.584817 -365.390562,-460.679144 -363.314059,-461.843081 -363.141595,-461.951655 -362.981076,-462.077215 -362.834168,-462.218459 -362.702396,-462.373919 -362.587128,-462.541982 -362.489562,-462.720902 -362.410710,-462.908823 -362.351391,-463.103792 -362.312221,-463.303786 -361.974296,-465.660143 -361.955309,-465.872862 -361.959112,-466.086392 -361.985663,-466.298300 -362.757165,-470.585222 -363.955306,-477.242800 -363.808572,-478.243393 -362.912527,-478.712243 -348.428796,-481.025830 "/>
  <edge id="887488409" from="8251334292" to="8251334299" numLanes="1" width="4.0" shape="-377.859934,-468.375868 -393.166928,-465.532180 -393.227110,-465.520041 -397.981297,-464.484926 "/>
  <edge id="887488410" from="Custom91" to="8251334292" numLanes="1" width="4.0" shape="-391.747548,-473.745642 -379.134734,-476.099345 -378.019466,-475.950487 -377.436005,-474.988428 -376.414228,-470.584583 "/>
  <edge id="889116247" from="3772750970" to="31168289" numLanes="1" width="3.5" shape="-136.847296,-311.654580 -66.403797,-322.896640 "/>
  <edge id="-889116247" to="3772750970" from="31168289" numLanes="1" width="3.5" shape="-66.403797,-322.896640 -136.847296,-311.654580 "/>
  <edge id="889116248" from="269987046" to="3772750970" numLanes="1" width="3.5" shape="-274.219314,-286.423857 -144.731005,-310.298904 "/>
  <edge id="-889116248" to="269987046" from="3772750970" numLanes="1" width="3.5" shape="-144.731005,-310.298904 -274.219314,-286.423857 "/>
  <edge id="-103766_1" from="269956910" to="30594812" numLanes="2" width="3.5" shape="308.402230,-44.607813 223.564616,-31.923321 "/>
  <edge id="-103766_2" from="30594812" to="7982089638" numLanes="2" width="3.5" shape="215.674034,-30.773547 136.204214,-19.495303 "/>
  <edge id="24703903_2" from="269826675" to="269830435" numLanes="2" width="3.5" shape="137.111594,-615.962204 216.905776,-629.011745 "/>
  <edge id="846008895_1" from="30341011" to="30341012" numLanes="4" width="3.5" shape="234.771992,-534.224617 151.412090,-522.220514 "/>
  <edge id="20457383_1" from="4312168553" to="269994000" numLanes="2" width="3.5" shape="168.213743,414.373109 179.221627,418.611952 "/>
  <edge id="20457383_2" from="269994000" to="269994176" numLanes="2" width="3.5" shape="188.267037,420.219431 281.381787,418.746146 "/>
  <edge id="-104692_1" from="269994000" to="270209443" numLanes="2" width="3.5" shape="181.259443,421.202587 197.520628,545.757176 "/>
  <edge id="-104692_2" from="270209443" to="269994072" numLanes="2" width="3.5" shape="198.618550,553.730835 211.220478,640.732755 "/>
  <edge id="617831539_1" from="269988226" to="269987745" numLanes="2" width="3.5" shape="-135.225217,693.595271 -2.566231,675.005055 "/>
  <edge id="846008895_2" from="30341012" to="30341013" numLanes="4" width="3.5" shape="143.493048,-521.079687 62.478583,-509.403955 "/>
  <edge id="846008895_3" from="30341013" to="30385203" numLanes="4" width="3.5" shape="54.514672,-508.226876 -81.710871,-487.590324 -81.835350,-487.570319 -85.807254,-486.895234 "/>
  <edge id="24703903_1" from="268511171" to="269830124" numLanes="2" width="3.5" shape="-107.512383,-575.021611 -103.545790,-574.492699 -103.145562,-574.462549 -102.744513,-574.478417 -96.537356,-575.081881 -96.231064,-575.125396 39.276723,-600.531398 "/>
  <edge id="24703903_3" from="269830124" to="269826675" numLanes="2" width="3.5" shape="47.055437,-601.867742 129.187157,-614.695405 "/>
  <edge id="-105948_1" from="Custom92" to="268511171" numLanes="3" width="3.5" shape="-123.550372,-598.203551 -122.922238,-594.489327 -121.770497,-586.732081 "/>
  <edge id="-105948_2" from="268511171" to="2434287917" numLanes="3" width="3.5" shape="-119.546085,-572.826568 -106.813391,-495.472818 -106.170274,-491.558796 -105.988990,-490.426141 -105.849451,-489.554310 -105.845210,-489.528237 -104.900219,-483.808562 "/>
  <edge id="-109889_1" from="7982089638" to="7982089639" numLanes="1" width="3.5" shape="134.721698,-15.712590 128.141867,-14.529787 "/>
  <edge id="--109889_1" to="7982089638" from="7982089639" numLanes="1" width="3.5" shape="128.141867,-14.529787 134.721698,-15.712590 "/>
  <edge id="-109889_2" from="7982089639" to="7982089635" numLanes="1" width="3.5" shape="120.240849,-13.287531 115.102000,-12.594570 "/>
  <edge id="--109889_2" to="7982089639" from="7982089635" numLanes="1" width="3.5" shape="115.102000,-12.594570 120.240849,-13.287531 "/>
  <edge id="856041979_2" from="7982089639" to="268621340" numLanes="2" width="3.5" shape="127.202558,-18.211214 127.099663,-19.067187 "/>
  <edge id="4780781_1" from="8744170927" to="270209089" numLanes="1" width="3.5" shape="-85.758678,-469.672225 -78.191322,-426.874909 "/>
  <edge id="-4780781_1" to="8744170927" from="270209089" numLanes="1" width="3.5" shape="-78.191322,-426.874909 -85.758678,-469.672225 "/>
  <edge id="24850149_2" from="269988897" to="269988898" numLanes="2" width="3.5" shape="-324.891046,55.186203 -311.792813,152.198911 "/>
  <edge id="4818253_1" from="269988898" to="269987048" numLanes="2" width="3.5" shape="-303.354345,158.624337 -216.384246,146.809661 "/>
  <edge id="4818253_2" from="269987048" to="3772750963" numLanes="2" width="3.5" shape="-208.441566,145.709184 -143.460419,136.530020 -86.952123,129.603920 "/>
  <edge id="24849974_1" from="269987044" to="269987048" numLanes="2" width="3.5" shape="-193.624138,248.245953 -208.839943,146.242915 "/>
  <edge id="24849974_3" from="269987048" to="268620937" numLanes="2" width="3.5" shape="-209.994820,138.346890 -224.169510,39.467492 "/>
  <edge id="24715603_1" from="268621340" to="268621359" numLanes="2" width="3.5" shape="127.099654,-19.067261 114.775318,-121.573709 "/>
  <edge id="4818258_1" from="268621359" to="30956914" numLanes="1" width="3.5" shape="106.868899,-124.522195 -25.127235,-104.321393 "/>
  <edge id="-4818258_1" to="268621359" from="30956914" numLanes="1" width="3.5" shape="-25.127235,-104.321393 106.868899,-124.522195 "/>
  <edge id="4780781_3" from="30956914" to="Custom93" numLanes="1" width="3.5" shape="-28.495774,-99.759347 -13.750858,-0.097514 "/>
  <edge id="-4780781_3" to="30956914" from="Custom93" numLanes="1" width="3.5" shape="-13.750858,-0.097514 -28.495774,-99.759347 "/>
  <edge id="187679421_2" from="3772750963" to="4312134571" numLanes="2" width="3.5" shape="-86.332424,130.081260 -71.848867,235.819760 "/>
  <edge id="24714067_1" from="3772750963" to="30594530" numLanes="2" width="3.5" shape="-78.929994,128.506978 -45.722941,123.493872 -0.253273,117.271766 "/>
  <edge id="885612151_1" from="Custom94" to="30594530" numLanes="1" width="3.5" shape="-12.004283,11.679261 2.641829,109.306041 "/>
  <edge id="-885612151_1" to="Custom94" from="30594530" numLanes="1" width="3.5" shape="2.641829,109.306041 -12.004283,11.679261 "/>
  <edge id="885612151_2" from="30594530" to="5065075410" numLanes="1" width="3.5" shape="3.835472,117.216487 20.948797,229.976173 "/>
  <edge id="-885612151_2" to="30594530" from="5065075410" numLanes="1" width="3.5" shape="20.948797,229.976173 3.835472,117.216487 "/>
  <edge id="24715388_1" from="269956908" to="268633522" numLanes="2" width="3.5" shape="355.617473,268.910035 269.599601,280.530128 "/>
  <edge id="24715388_2" from="268633522" to="3603314960" numLanes="2" width="3.5" shape="261.671135,281.601837 216.222462,287.749004 "/>
  <edge id="887431154_1" from="5065075411" to="5065075410" numLanes="2" width="3.5" shape="10.361989,250.684487 18.718134,244.002199 "/>
  <edge id="24847028_1" from="269987047" to="3772750969" numLanes="2" width="3.5" shape="-257.404130,-175.458432 -129.133217,-194.149169 "/>
  <edge id="24850149_1" from="30341018" to="270209145" numLanes="2" width="3.5" shape="-398.743555,-426.571281 -390.088134,-368.370325 "/>
  <edge id="4780792_5" from="270209445" to="270209444" numLanes="2" width="3.5" shape="295.516068,508.461238 298.788122,530.671523 "/>
  <edge id="24846907_4" from="270209446" to="269956908" numLanes="1" width="3.5" shape="392.443838,487.211352 379.614434,401.904756 378.891522,397.139360 361.117793,278.928143 360.646117,275.798371 "/>
  <edge id="-24846907_4" to="270209446" from="269956908" numLanes="1" width="3.5" shape="360.646117,275.798371 361.117793,278.928143 378.891522,397.139360 379.614434,401.904756 392.443838,487.211352 "/>
  <edge id="4780792_4" from="270209444" to="270209447" numLanes="2" width="3.5" shape="299.953358,538.585613 303.816225,564.836864 "/>
  <edge id="4780792_6" from="270209447" to="269994178" numLanes="2" width="3.5" shape="304.934650,572.721481 312.253217,626.315413 "/>
  <edge id="24846907_1" from="269988227" to="270209464" numLanes="1" width="3.5" shape="411.059714,611.432964 403.449404,560.421804 "/>
  <edge id="-24846907_1" to="269988227" from="270209464" numLanes="1" width="3.5" shape="403.449404,560.421804 411.059714,611.432964 "/>
  <edge id="24846907_5" from="270209464" to="270209446" numLanes="1" width="3.5" shape="402.264298,552.510072 393.633597,495.122387 "/>
  <edge id="-24846907_5" to="270209464" from="270209446" numLanes="1" width="3.5" shape="393.633597,495.122387 402.264298,552.510072 "/>
  <edge id="4780781_2" from="270209089" to="31168289" numLanes="1" width="3.5" shape="-76.896396,-418.981032 -72.766647,-391.689004 -63.052169,-327.482010 "/>
  <edge id="-4780781_2" to="270209089" from="31168289" numLanes="1" width="3.5" shape="-63.052169,-327.482010 -72.766647,-391.689004 -76.896396,-418.981032 "/>
  <edge id="91976750_1" from="31168289" to="30594548" numLanes="1" width="3.5" shape="-58.493644,-324.090323 76.389907,-343.276535 "/>
  <edge id="-91976750_1" to="31168289" from="30594548" numLanes="1" width="3.5" shape="76.389907,-343.276535 -58.493644,-324.090323 "/>
  <edge id="91976750_2" from="30594548" to="30594809" numLanes="1" width="3.5" shape="84.307403,-344.422343 167.681860,-356.694727 "/>
  <edge id="-91976750_2" to="30594548" from="30594809" numLanes="1" width="3.5" shape="167.681860,-356.694727 84.307403,-344.422343 "/>
  <edge id="24715603_3" from="30594548" to="30341013" numLanes="2" width="3.5" shape="83.297381,-348.262867 63.904638,-495.407183 "/>
  <edge id="187679421_1" from="2180585469" to="2265959610" numLanes="2" width="3.5" shape="-164.139100,-461.581761 -163.184647,-451.694446 -163.169878,-451.566219 -158.345731,-415.540164 "/>
  <edge id="432046500_2" from="4312134548" to="5065075411" numLanes="2" width="3.5" shape="1.206960,307.041339 2.248501,298.861786 2.276518,298.408618 2.217872,279.859631 2.212537,279.677218 1.414462,265.262294 2.911857,259.987316 10.893239,250.157166 "/>
  <edge id="887431154_2" from="5065075410" to="4312134532" numLanes="2" width="3.5" shape="26.401694,239.874769 64.280967,235.148715 "/>
  <edge id="438721545_1" from="30594539" to="268639104" numLanes="2" width="3.5" shape="157.184845,206.960243 248.679301,193.613721 "/>
  <edge id="438721545_2" from="268639104" to="269956909" numLanes="2" width="3.5" shape="256.595466,192.459048 342.170605,179.977656 "/>
  <edge id="4780792_7" from="268639104" to="268633522" numLanes="2" width="3.5" shape="249.251749,194.039872 262.059178,281.086205 "/>
  <edge id="24850149_3" from="269988898" to="268636314" numLanes="2" width="3.5" shape="-310.667637,160.162734 -295.705533,261.554727 "/>
  <edge id="24850149_5" from="268636314" to="269990904" numLanes="2" width="3.5" shape="-294.620972,269.414225 -287.560445,324.383317 -287.550232,324.456674 -264.638126,477.185452 -264.634398,477.209725 -263.867156,482.090392 "/>
  <edge id="770937766_2" from="8256677652" to="2113341940" numLanes="2" width="3.5" shape="157.649311,296.985691 152.828974,297.785525 "/>
  <edge id="432046500_3" from="5065079156" to="4312134548" numLanes="2" width="3.5" shape="8.526720,402.154177 -3.296305,319.980363 "/>
  <edge id="618106730_1" from="Custom95" to="8251334299" numLanes="2" width="3.5" shape="-435.080573,-605.573187 -433.591626,-598.068899 -433.584291,-598.032920 -405.709578,-464.877726 "/>
  <edge id="618106730_2" from="8251334299" to="30341018" numLanes="2" width="3.5" shape="-404.072090,-457.048417 -402.696358,-450.464617 -402.264467,-447.774586 -402.229641,-447.589602 -401.208162,-442.866246 -400.815144,-440.298689 "/>
  <edge id="856041980_1" from="7982089635" to="3772750964" numLanes="2" width="3.5" shape="112.593888,-15.769778 -13.160400,3.441222 -92.544555,11.632799 "/>
  <edge id="856041980_2" from="3772750964" to="268620937" numLanes="2" width="3.5" shape="-100.653364,12.679336 -224.785422,31.932893 "/>
  <edge id="187679421_6" from="3772750964" to="3772750963" numLanes="2" width="3.5" shape="-99.166462,19.910806 -92.679081,74.371049 -87.331589,122.058235 "/>
  <edge id="24850149_4" from="270209145" to="269988896" numLanes="2" width="3.5" shape="-388.911195,-360.457253 -379.619903,-297.995101 -379.619150,-297.990062 -374.968851,-267.037403 -374.963343,-267.001978 -359.239212,-169.172471 "/>
  <edge id="24850149_6" from="269988896" to="269988897" numLanes="2" width="3.5" shape="-358.002323,-161.294463 -326.023375,47.330346 "/>
  <edge id="187679421_4" from="2812606360" to="3772750970" numLanes="2" width="3.5" shape="-156.671284,-403.107788 -153.784734,-381.566481 -144.797725,-314.523725 "/>
  <edge id="187679421_7" from="3772750970" to="3772750969" numLanes="2" width="3.5" shape="-143.735140,-306.594845 -129.679860,-201.689152 "/>
  <edge id="24849974_4" from="269987047" to="269987046" numLanes="2" width="3.5" shape="-259.006542,-182.824807 -274.092646,-282.268771 "/>
  <edge id="24849974_5" from="269987046" to="270209015" numLanes="2" width="3.5" shape="-275.292291,-290.178105 -288.777539,-379.104813 "/>
  <edge id="24846907_2" from="269956910" to="269956911" numLanes="1" width="3.5" shape="312.261532,-45.690327 280.600694,-249.412473 "/>
  <edge id="-24846907_2" to="269956910" from="269956911" numLanes="1" width="3.5" shape="280.600694,-249.412473 312.261532,-45.690327 "/>
  <edge id="24846907_6" from="269956911" to="30341011" numLanes="1" width="3.5" shape="279.406001,-257.322690 241.179932,-517.972056 "/>
  <edge id="-24846907_6" to="269956911" from="30341011" numLanes="1" width="3.5" shape="241.179932,-517.972056 279.406001,-257.322690 "/>
  <edge id="4780792_1" from="30341012" to="30594809" numLanes="2" width="3.5" shape="146.008015,-507.286319 167.593736,-360.724563 "/>
  <edge id="432046500_1" from="5065079151" to="4312168553" numLanes="2" width="3.5" shape="157.003051,379.406785 159.549240,395.287641 159.562289,395.363660 161.575734,406.364950 "/>
  <edge id="432046500_4" from="4312168553" to="5065079156" numLanes="2" width="3.5" shape="161.412853,406.581234 149.815062,407.731142 83.240549,414.311723 83.179021,414.318354 23.738943,421.256956 18.136075,420.634954 13.654564,417.935611 11.327795,414.592254 "/>
  <edge id="4780792_3" from="268633522" to="269994176" numLanes="2" width="3.5" shape="263.224150,289.001277 263.708472,292.290742 263.721426,292.380976 276.546074,381.714402 276.559154,381.798272 279.083574,396.788552 279.131952,397.075827 281.173311,410.988878 281.282522,411.733523 "/>
  <edge id="4780792_9" from="269994176" to="270209445" numLanes="2" width="3.5" shape="282.445598,419.650267 294.350610,500.546044 "/>
  <edge id="617831539_2" from="269987745" to="269994072" numLanes="2" width="3.5" shape="5.315172,673.956781 79.612819,664.603472 211.720758,648.157060 "/>
  <edge id="618028624_2" from="8744170927" to="2434287917" numLanes="4" width="3.5" shape="-92.603141,-485.760976 -92.818640,-485.724814 "/>
  <edge id="856041979_1" from="30594539" to="268622218" numLanes="2" width="3.5" shape="155.689152,199.664830 147.486937,135.143148 142.791717,98.206341 "/>
  <edge id="856041979_3" from="268622218" to="7982089639" numLanes="2" width="3.5" shape="141.750148,90.248324 128.207466,-10.324937 "/>
  <edge id="24714067_2" from="30594530" to="268622218" numLanes="2" width="3.5" shape="7.673481,116.186207 135.327559,98.690355 "/>
  <edge id="24714067_3" from="268622218" to="30956904" numLanes="2" width="3.5" shape="143.253406,97.604143 232.714028,85.344745 "/>
  <edge id="4818258_2" from="30956914" to="3772750965" numLanes="1" width="3.5" shape="-33.035153,-103.111090 -107.376912,-91.732477 "/>
  <edge id="-4818258_2" to="30956914" from="3772750965" numLanes="1" width="3.5" shape="-107.376912,-91.732477 -33.035153,-103.111090 "/>
  <edge id="4818258_3" from="3772750965" to="270209315" numLanes="1" width="3.5" shape="-115.285790,-90.528484 -240.011201,-71.644022 "/>
  <edge id="-4818258_3" to="3772750965" from="270209315" numLanes="1" width="3.5" shape="-240.011201,-71.644022 -115.285790,-90.528484 "/>
  <edge id="187679421_3" from="3772750969" to="3772750965" numLanes="2" width="3.5" shape="-128.617323,-193.759878 -115.331191,-94.626920 "/>
  <edge id="187679421_8" from="3772750965" to="3772750964" numLanes="2" width="3.5" shape="-114.232842,-86.674368 -100.192475,12.057499 "/>
  <edge id="24846907_3" from="269956908" to="269956909" numLanes="1" width="3.5" shape="359.455026,267.887537 346.218581,179.892496 "/>
  <edge id="-24846907_3" to="269956908" from="269956909" numLanes="1" width="3.5" shape="346.218581,179.892496 359.455026,267.887537 "/>
  <edge id="24846907_7" from="269956909" to="269956910" numLanes="1" width="3.5" shape="345.028507,171.981509 313.470883,-37.782287 "/>
  <edge id="-24846907_7" to="269956909" from="269956910" numLanes="1" width="3.5" shape="313.470883,-37.782287 345.028507,171.981509 "/>
  <edge id="24849974_2" from="268620937" to="270209315" numLanes="2" width="3.5" shape="-225.321813,31.537389 -239.920707,-67.597811 "/>
  <edge id="24849974_6" from="270209315" to="269987047" numLanes="2" width="3.5" shape="-241.172063,-75.566630 -257.756484,-174.975571 "/>
  <edge id="24847028_2" from="3772750969" to="3714135693" numLanes="2" width="3.5" shape="-121.220454,-195.297076 -48.813278,-205.754675 "/>
  <edge id="4780781_4" from="31168289" to="3714135693" numLanes="1" width="3.5" shape="-61.859106,-319.571474 -45.949337,-213.746058 "/>
  <edge id="-4780781_4" to="31168289" from="3714135693" numLanes="1" width="3.5" shape="-45.949337,-213.746058 -61.859106,-319.571474 "/>
  <edge id="4780781_5" from="3714135693" to="30956914" numLanes="1" width="3.5" shape="-44.748095,-205.836768 -29.687766,-107.670017 "/>
  <edge id="-4780781_5" to="3714135693" from="30956914" numLanes="1" width="3.5" shape="-29.687766,-107.670017 -44.748095,-205.836768 "/>
  <edge id="617831539_3" from="269994072" to="269994178" numLanes="2" width="3.5" shape="219.711250,647.090781 312.795667,633.834089 "/>
  <edge id="617831539_4" from="269994178" to="269988227" numLanes="2" width="3.5" shape="320.740335,632.668051 408.217864,619.447611 "/>
  <edge id="24715603_2" from="268621359" to="268615862" numLanes="2" width="3.5" shape="113.695825,-129.599012 99.687703,-223.710054 "/>
  <edge id="24715603_4" from="268615862" to="30594548" numLanes="2" width="3.5" shape="98.587706,-231.571926 84.339975,-340.328361 "/>
  <edge id="24847028_3" from="3714135693" to="268615862" numLanes="2" width="3.5" shape="-40.956910,-206.805584 92.094660,-223.188576 "/>
  <edge id="618028624_3" from="2434287917" to="2180585469" numLanes="4" width="3.5" shape="-106.463976,-483.628210 -145.081943,-478.239010 -154.008405,-476.993331 -158.331197,-476.392934 "/>
  <edge id="618028624_4" from="2180585469" to="269986908" numLanes="4" width="3.5" shape="-166.307053,-475.251971 -169.778707,-474.740882 -292.977861,-457.625449 -301.700783,-456.413618 -304.820244,-455.977555 "/>
  <edge id="887431154_3" from="4312134532" to="2113341940" numLanes="2" width="3.5" shape="92.454182,237.357368 123.106104,239.903141 128.290147,242.061313 133.787257,247.631934 137.030991,255.968092 140.127695,267.957114 143.971232,290.514686 145.334948,298.536265 "/>
  <edge id="887431154_4" from="2113341940" to="5065079151" numLanes="2" width="3.5" shape="146.557209,306.348180 156.994148,379.348069 "/>
  <edge id="4780792_2" from="30594812" to="30956904" numLanes="2" width="3.5" shape="217.246006,-23.403229 232.156570,77.886461 "/>
  <edge id="4780792_10" from="30956904" to="268639104" numLanes="2" width="3.5" shape="233.321544,85.801082 248.087068,186.125260 "/>
  <edge id="4780792_8" from="30594809" to="3772750754" numLanes="2" width="3.5" shape="168.678692,-352.863020 182.934552,-242.145227 "/>
  <edge id="4780792_11" from="3772750754" to="30594812" numLanes="2" width="3.5" shape="184.081985,-234.128909 216.046184,-31.276773 "/>
  <edge id="24847028_4" from="268615862" to="3772750754" numLanes="2" width="3.5" shape="100.042223,-224.177376 183.384454,-234.653400 "/>
  <edge id="24847028_5" from="3772750754" to="269956911" numLanes="2" width="3.5" shape="191.414966,-235.793738 276.583158,-249.282403 "/>
</edges>
