<?xml version="1.0" encoding="UTF-8"?>

<!-- generated on dom 02 ene 2022 12:14:42 CST by Netedit Version 0.30.0
<?xml version="1.0" encoding="UTF-8"?>

<configuration xmlns:xsi="http://www.w3.org/2001/XMLSchema-instance" xsi:noNamespaceSchemaLocation="http://sumo.dlr.de/xsd/netconvertConfiguration.xsd">

    <input>
        <sumo-net-file value="/home/sr-gus/SSocial/Webots-ROS-exec/catkin_ws/src/bring_up_web/worlds/Centro_Historico_net/sumo.net.xml"/>
    </input>

    <output>
        <output-file value="/home/sr-gus/SSocial/Webots-ROS-exec/catkin_ws/src/bring_up_web/worlds/Centro_Historico_net/sumo.net.xml"/>
    </output>

    <processing>
        <no-turnarounds value="true"/>
        <offset.disable-normalization value="true"/>
        <lefthand value="false"/>
        <junctions.corner-detail value="0"/>
        <rectangular-lane-cut value="false"/>
    </processing>

</configuration>
-->

<net version="0.27" xmlns:xsi="http://www.w3.org/2001/XMLSchema-instance" xsi:noNamespaceSchemaLocation="http://sumo.dlr.de/xsd/net_file.xsd">

    <location netOffset="435.08,633.11" convBoundary="0.00,0.00,846.73,1338.94" origBoundary="-435.08,-633.11,411.65,705.83" projParameter="!"/>

    <edge id=":2113341940_0" function="internal">
        <lane id=":2113341940_0_0" index="0" speed="13.90" length="6.33" width="3.50" shape="588.79,936.23 587.89,936.51 587.29,937.02 586.99,937.75 586.99,938.70"/>
        <lane id=":2113341940_0_1" index="1" speed="13.90" length="6.33" width="3.50" shape="588.20,932.68 585.81,933.43 584.22,934.77 583.42,936.70 583.42,939.21"/>
    </edge>
    <edge id=":2113341940_2" function="internal">
        <lane id=":2113341940_2_0" index="0" speed="13.90" length="0.11" width="3.50" shape="587.10,938.68 586.99,938.70"/>
        <lane id=":2113341940_2_1" index="1" speed="13.90" length="0.11" width="3.50" shape="583.53,939.19 583.42,939.21"/>
    </edge>
    <edge id=":2180585469_0" function="internal">
        <lane id=":2180585469_0_0" index="0" speed="13.90" length="4.75" width="3.50" shape="278.48,169.20 277.48,169.43 276.78,169.79 276.39,170.29 276.31,170.93"/>
        <lane id=":2180585469_0_1" index="1" speed="13.90" length="4.75" width="3.50" shape="278.48,169.20 275.92,169.64 274.10,170.15 273.04,170.72 272.73,171.36"/>
    </edge>
    <edge id=":2180585469_2" function="internal">
        <lane id=":2180585469_2_0" index="0" speed="13.90" length="8.00" width="3.50" shape="278.48,169.20 270.61,170.33"/>
        <lane id=":2180585469_2_1" index="1" speed="13.90" length="8.00" width="3.50" shape="277.99,165.63 270.08,166.76"/>
        <lane id=":2180585469_2_2" index="2" speed="13.90" length="8.00" width="3.50" shape="277.49,162.07 269.56,163.20"/>
        <lane id=":2180585469_2_3" index="3" speed="13.90" length="8.00" width="3.50" shape="277.00,158.50 269.03,159.64"/>
    </edge>
    <edge id=":2265959610_0" function="internal">
        <lane id=":2265959610_0_0" index="0" speed="13.90" length="5.26" width="3.50" shape="284.95,222.27 283.48,221.58 282.91,220.75 283.22,219.80 284.43,218.71"/>
    </edge>
    <edge id=":2265959610_1" function="internal">
        <lane id=":2265959610_1_0" index="0" speed="13.90" length="6.68" width="3.50" shape="283.14,224.78 282.93,222.24 283.08,220.38 283.58,219.20 284.43,218.71"/>
    </edge>
    <edge id=":2286069615_0" function="internal">
        <lane id=":2286069615_0_0" index="0" speed="13.90" length="1.37" width="3.50" shape="407.43,1094.10 407.37,1093.49 407.36,1093.07 407.43,1092.66 407.58,1092.07"/>
        <lane id=":2286069615_0_1" index="1" speed="13.90" length="1.37" width="3.50" shape="411.01,1093.67 410.98,1093.48 410.98,1093.34 411.00,1093.20 411.05,1093.01"/>
    </edge>
    <edge id=":2434287917_0" function="internal">
        <lane id=":2434287917_0_0" index="0" speed="13.90" length="14.00" width="3.50" shape="344.35,159.82 330.36,161.96"/>
        <lane id=":2434287917_0_1" index="1" speed="13.90" length="14.00" width="3.50" shape="343.75,156.27 329.86,158.39"/>
        <lane id=":2434287917_0_2" index="2" speed="13.90" length="14.00" width="3.50" shape="343.16,152.72 329.37,154.83"/>
        <lane id=":2434287917_0_3" index="3" speed="13.90" length="14.00" width="3.50" shape="342.56,149.17 328.87,151.26"/>
    </edge>
    <edge id=":2434287917_4" function="internal">
        <lane id=":2434287917_4_0" index="0" speed="13.90" length="13.12" width="3.50" shape="341.36,161.73 340.34,159.71 338.09,158.48 334.59,158.04 329.86,158.39"/>
        <lane id=":2434287917_4_1" index="1" speed="13.90" length="13.12" width="3.50" shape="337.81,162.33 336.76,158.68 335.00,156.21 332.53,154.93 329.37,154.83"/>
        <lane id=":2434287917_4_2" index="2" speed="13.90" length="13.12" width="3.50" shape="334.24,162.83 333.16,157.59 331.90,153.92 330.47,151.81 328.87,151.26"/>
    </edge>
    <edge id=":268511171_0" function="internal">
        <lane id=":268511171_0_0" index="0" speed="13.90" length="7.12" width="3.50" shape="324.26,58.85 324.14,55.92 324.81,53.94 326.26,52.88 328.50,52.77"/>
        <lane id=":268511171_0_1" index="1" speed="13.90" length="7.12" width="3.50" shape="324.26,58.85 324.30,57.53 324.87,56.67 325.98,56.25 327.62,56.28"/>
    </edge>
    <edge id=":268511171_2" function="internal">
        <lane id=":268511171_2_0" index="0" speed="13.90" length="0.16" width="3.50" shape="324.26,58.85 324.41,58.82"/>
        <lane id=":268511171_2_1" index="1" speed="13.90" length="0.16" width="3.50" shape="320.70,59.43 320.86,59.40"/>
        <lane id=":268511171_2_2" index="2" speed="13.90" length="0.16" width="3.50" shape="317.15,60.01 317.31,59.99"/>
    </edge>
    <edge id=":268615862_0" function="internal">
        <lane id=":268615862_0_0" index="0" speed="13.90" length="0.10" width="3.50" shape="529.43,410.19 529.36,410.20"/>
        <lane id=":268615862_0_1" index="1" speed="13.90" length="0.10" width="3.50" shape="532.99,409.66 532.92,409.67"/>
    </edge>
    <edge id=":268615862_2" function="internal">
        <lane id=":268615862_2_0" index="0" speed="13.90" length="0.52" width="3.50" shape="532.99,409.66 532.99,409.15"/>
    </edge>
    <edge id=":268615862_6" function="internal">
        <lane id=":268615862_6_0" index="0" speed="13.90" length="3.10" width="3.50" shape="532.99,409.15 532.98,408.67 533.30,407.91 533.94,407.41 534.90,407.14"/>
    </edge>
    <edge id=":268615862_3" function="internal">
        <lane id=":268615862_3_0" index="0" speed="13.90" length="6.79" width="3.50" shape="526.52,404.56 527.47,404.82 528.26,405.84 528.89,407.64 529.36,410.20"/>
    </edge>
    <edge id=":268615862_4" function="internal">
        <lane id=":268615862_4_0" index="0" speed="13.90" length="7.99" width="3.50" shape="526.52,404.56 534.45,403.57"/>
        <lane id=":268615862_4_1" index="1" speed="13.90" length="7.99" width="3.50" shape="526.96,408.13 534.90,407.14"/>
    </edge>
    <edge id=":268620937_0" function="internal">
        <lane id=":268620937_0_0" index="0" speed="13.90" length="3.33" width="3.50" shape="205.56,673.34 205.31,672.47 204.83,671.89 204.14,671.60 203.22,671.61"/>
    </edge>
    <edge id=":268620937_1" function="internal">
        <lane id=":268620937_1_0" index="0" speed="13.90" length="0.10" width="3.50" shape="205.56,673.34 205.58,673.34"/>
        <lane id=":268620937_1_1" index="1" speed="13.90" length="0.10" width="3.50" shape="209.13,672.83 209.15,672.83"/>
    </edge>
    <edge id=":268620937_3" function="internal">
        <lane id=":268620937_3_0" index="0" speed="13.90" length="8.01" width="3.50" shape="211.13,670.38 203.22,671.61"/>
        <lane id=":268620937_3_1" index="1" speed="13.90" length="8.01" width="3.50" shape="210.58,666.82 202.66,668.06"/>
    </edge>
    <edge id=":268620937_5" function="internal">
        <lane id=":268620937_5_0" index="0" speed="13.90" length="6.71" width="3.50" shape="210.58,666.82 209.64,667.33 209.09,668.50 208.92,670.33 209.15,672.83"/>
    </edge>
    <edge id=":268621340_0" function="internal">
        <lane id=":268621340_0_0" index="0" speed="13.90" length="0.30" width="3.50" shape="556.83,614.82 556.80,614.53"/>
        <lane id=":268621340_0_1" index="1" speed="13.90" length="0.30" width="3.50" shape="560.41,614.40 560.37,614.10"/>
    </edge>
    <edge id=":268621359_0" function="internal">
        <lane id=":268621359_0_0" index="0" speed="13.90" length="3.34" width="3.50" shape="544.50,512.18 544.26,511.27 543.80,510.67 543.12,510.37 542.22,510.37"/>
    </edge>
    <edge id=":268621359_1" function="internal">
        <lane id=":268621359_1_0" index="0" speed="13.90" length="0.11" width="3.50" shape="544.50,512.18 544.61,512.17"/>
        <lane id=":268621359_1_1" index="1" speed="13.90" length="0.11" width="3.50" shape="548.07,511.75 548.19,511.74"/>
    </edge>
    <edge id=":268621359_3" function="internal">
        <lane id=":268621359_3_0" index="0" speed="13.90" length="6.60" width="3.50" shape="541.68,506.81 542.64,507.03 543.45,507.99 544.11,509.70 544.61,512.17"/>
    </edge>
    <edge id=":268621359_4" function="internal">
        <lane id=":268621359_4_0" index="0" speed="13.90" length="5.26" width="3.50" shape="541.68,506.81 543.15,507.50 543.73,508.32 543.42,509.28 542.22,510.37"/>
    </edge>
    <edge id=":268622218_0" function="internal">
        <lane id=":268622218_0_0" index="0" speed="13.90" length="0.10" width="3.50" shape="572.51,732.00 572.54,732.00"/>
        <lane id=":268622218_0_1" index="1" speed="13.90" length="0.10" width="3.50" shape="576.08,731.55 576.12,731.54"/>
    </edge>
    <edge id=":268622218_2" function="internal">
        <lane id=":268622218_2_0" index="0" speed="13.90" length="0.57" width="3.50" shape="576.08,731.55 576.09,730.97"/>
    </edge>
    <edge id=":268622218_6" function="internal">
        <lane id=":268622218_6_0" index="0" speed="13.90" length="3.17" width="3.50" shape="576.09,730.97 576.10,730.52 576.44,729.75 577.10,729.22 578.09,728.94"/>
    </edge>
    <edge id=":268622218_3" function="internal">
        <lane id=":268622218_3_0" index="0" speed="13.90" length="6.73" width="3.50" shape="569.68,726.45 570.64,726.69 571.43,727.69 572.07,729.46 572.54,732.00"/>
    </edge>
    <edge id=":268622218_4" function="internal">
        <lane id=":268622218_4_0" index="0" speed="13.90" length="7.99" width="3.50" shape="569.68,726.45 577.60,725.37"/>
        <lane id=":268622218_4_1" index="1" speed="13.90" length="7.99" width="3.50" shape="570.17,730.02 578.09,728.94"/>
    </edge>
    <edge id=":268633522_0" function="internal">
        <lane id=":268633522_0_0" index="0" speed="13.90" length="3.34" width="3.50" shape="705.40,918.99 704.52,919.24 703.93,919.71 703.64,920.40 703.64,921.31"/>
    </edge>
    <edge id=":268633522_1" function="internal">
        <lane id=":268633522_1_0" index="0" speed="13.90" length="8.00" width="3.50" shape="705.40,918.99 697.47,920.06"/>
        <lane id=":268633522_1_1" index="1" speed="13.90" length="8.00" width="3.50" shape="704.92,915.42 696.99,916.49"/>
    </edge>
    <edge id=":268633522_3" function="internal">
        <lane id=":268633522_3_0" index="0" speed="13.90" length="0.10" width="3.50" shape="703.65,921.32 703.64,921.31"/>
        <lane id=":268633522_3_1" index="1" speed="13.90" length="0.10" width="3.50" shape="700.08,921.85 700.08,921.84"/>
    </edge>
    <edge id=":268633522_5" function="internal">
        <lane id=":268633522_5_0" index="0" speed="13.90" length="0.37" width="3.50" shape="700.08,921.85 700.01,921.48"/>
    </edge>
    <edge id=":268633522_6" function="internal">
        <lane id=":268633522_6_0" index="0" speed="13.90" length="6.34" width="3.50" shape="700.01,921.48 699.58,919.39 698.90,917.68 698.03,916.71 696.99,916.49"/>
    </edge>
    <edge id=":268636314_0" function="internal">
        <lane id=":268636314_0_0" index="0" speed="13.90" length="6.29" width="3.50" shape="147.63,899.49 146.74,899.73 146.14,900.21 145.83,900.91 145.82,901.84"/>
        <lane id=":268636314_0_1" index="1" speed="13.90" length="6.29" width="3.50" shape="147.17,895.92 144.74,896.59 143.11,897.88 142.28,899.78 142.25,902.30"/>
    </edge>
    <edge id=":268636314_2" function="internal">
        <lane id=":268636314_2_0" index="0" speed="13.90" length="0.10" width="3.50" shape="145.89,901.83 145.82,901.84"/>
        <lane id=":268636314_2_1" index="1" speed="13.90" length="0.10" width="3.50" shape="142.32,902.29 142.25,902.30"/>
    </edge>
    <edge id=":268639104_0" function="internal">
        <lane id=":268639104_0_0" index="0" speed="13.90" length="6.74" width="3.50" shape="689.68,826.36 689.43,823.79 689.55,821.91 690.04,820.72 690.90,820.23"/>
    </edge>
    <edge id=":268639104_1" function="internal">
        <lane id=":268639104_1_0" index="0" speed="13.90" length="0.10" width="3.50" shape="689.68,826.36 689.67,826.36"/>
        <lane id=":268639104_1_1" index="1" speed="13.90" length="0.10" width="3.50" shape="686.12,826.89 686.11,826.89"/>
    </edge>
    <edge id=":268639104_3" function="internal">
        <lane id=":268639104_3_0" index="0" speed="13.90" length="8.00" width="3.50" shape="682.98,821.39 690.90,820.23"/>
        <lane id=":268639104_3_1" index="1" speed="13.90" length="8.00" width="3.50" shape="683.50,824.95 691.42,823.79"/>
    </edge>
    <edge id=":268639104_5" function="internal">
        <lane id=":268639104_5_0" index="0" speed="13.90" length="3.71" width="3.50" shape="683.50,824.95 684.52,824.95 685.29,825.27 685.82,825.92 686.11,826.89"/>
    </edge>
    <edge id=":269826675_0" function="internal">
        <lane id=":269826675_0_0" index="0" speed="13.90" length="7.99" width="3.50" shape="563.44,13.08 571.32,11.82"/>
        <lane id=":269826675_0_1" index="1" speed="13.90" length="7.99" width="3.50" shape="563.99,16.64 571.90,15.37"/>
    </edge>
    <edge id=":269826675_2" function="internal">
        <lane id=":269826675_2_0" index="0" speed="13.90" length="5.27" width="3.50" shape="563.99,16.64 566.56,16.39 568.44,16.53 569.64,17.07 570.16,18.00"/>
        <lane id=":269826675_2_1" index="1" speed="13.90" length="5.27" width="3.50" shape="563.99,16.64 565.00,16.63 565.77,16.94 566.31,17.58 566.60,18.55"/>
    </edge>
    <edge id=":269830124_0" function="internal">
        <lane id=":269830124_0_0" index="0" speed="13.90" length="0.50" width="3.50" shape="476.42,32.66 476.41,32.18"/>
        <lane id=":269830124_0_1" index="1" speed="13.90" length="0.50" width="3.50" shape="479.97,32.07 479.96,31.56"/>
    </edge>
    <edge id=":269830124_4" function="internal">
        <lane id=":269830124_4_0" index="0" speed="13.90" length="9.04" width="3.50" shape="476.41,32.18 476.36,30.05 477.16,28.05 478.81,26.67 481.31,25.90"/>
    </edge>
    <edge id=":269830124_5" function="internal">
        <lane id=":269830124_5_0" index="0" speed="13.90" length="3.17" width="3.50" shape="479.96,31.56 479.95,31.06 480.26,30.29 480.90,29.76 481.86,29.46"/>
    </edge>
    <edge id=":269830124_2" function="internal">
        <lane id=":269830124_2_0" index="0" speed="13.90" length="8.00" width="3.50" shape="473.36,27.27 481.31,25.90"/>
        <lane id=":269830124_2_1" index="1" speed="13.90" length="8.00" width="3.50" shape="474.03,30.81 481.86,29.46"/>
    </edge>
    <edge id=":269830435_0" function="internal">
        <lane id=":269830435_0_0" index="0" speed="13.90" length="5.26" width="3.50" shape="654.33,4.26 654.97,2.77 655.77,2.16 656.74,2.44 657.87,3.60"/>
    </edge>
    <edge id=":269830435_1" function="internal">
        <lane id=":269830435_1_0" index="0" speed="13.90" length="9.42" width="3.50" shape="651.12,-1.23 653.67,-1.28 655.65,-0.49 657.05,1.14 657.87,3.60"/>
    </edge>
    <edge id=":269956908_0" function="internal">
        <lane id=":269956908_0_0" index="0" speed="13.90" length="3.53" width="3.50" shape="793.95,909.18 793.67,908.28 793.16,907.67 792.41,907.37 791.42,907.37"/>
    </edge>
    <edge id=":269956908_1" function="internal">
        <lane id=":269956908_1_0" index="0" speed="13.90" length="0.10" width="3.50" shape="793.95,909.18 793.95,909.18"/>
    </edge>
    <edge id=":269956908_2" function="internal">
        <lane id=":269956908_2_0" index="0" speed="13.90" length="2.63" width="3.50" shape="793.95,909.18 794.64,907.71 795.46,907.13"/>
    </edge>
    <edge id=":269956908_6" function="internal">
        <lane id=":269956908_6_0" index="0" speed="13.90" length="2.63" width="3.50" shape="795.46,907.13 796.42,907.44 797.51,908.64"/>
    </edge>
    <edge id=":269956908_3" function="internal">
        <lane id=":269956908_3_0" index="0" speed="13.90" length="0.10" width="3.50" shape="797.51,908.64 797.51,908.64"/>
    </edge>
    <edge id=":269956908_4" function="internal">
        <lane id=":269956908_4_0" index="0" speed="13.90" length="9.27" width="3.50" shape="797.51,908.64 796.78,906.24 795.45,904.63 793.50,903.82 790.94,903.80"/>
    </edge>
    <edge id=":269956908_5" function="internal">
        <lane id=":269956908_5_0" index="0" speed="13.90" length="2.63" width="3.50" shape="797.51,908.64 796.82,910.11 796.00,910.69"/>
    </edge>
    <edge id=":269956908_7" function="internal">
        <lane id=":269956908_7_0" index="0" speed="13.90" length="2.63" width="3.50" shape="796.00,910.69 795.04,910.38 793.95,909.18"/>
    </edge>
    <edge id=":269956909_0" function="internal">
        <lane id=":269956909_0_0" index="0" speed="13.90" length="0.10" width="3.50" shape="779.52,813.27 779.52,813.27"/>
    </edge>
    <edge id=":269956909_1" function="internal">
        <lane id=":269956909_1_0" index="0" speed="13.90" length="5.26" width="3.50" shape="779.52,813.27 780.21,811.80 781.03,811.22 781.99,811.53 783.08,812.73"/>
    </edge>
    <edge id=":269956909_2" function="internal">
        <lane id=":269956909_2_0" index="0" speed="13.90" length="0.10" width="3.50" shape="783.08,812.73 783.08,812.73"/>
    </edge>
    <edge id=":269956909_3" function="internal">
        <lane id=":269956909_3_0" index="0" speed="13.90" length="5.26" width="3.50" shape="783.08,812.73 782.39,814.20 781.57,814.78 780.61,814.47 779.52,813.27"/>
    </edge>
    <edge id=":269956909_4" function="internal">
        <lane id=":269956909_4_0" index="0" speed="13.90" length="6.81" width="3.50" shape="776.47,807.75 777.48,807.97 778.32,808.97 779.00,810.73 779.52,813.27"/>
    </edge>
    <edge id=":269956909_5" function="internal">
        <lane id=":269956909_5_0" index="0" speed="13.90" length="6.79" width="3.50" shape="776.99,811.31 779.53,811.08 781.39,811.25 782.57,811.80 783.08,812.73"/>
    </edge>
    <edge id=":269956910_0" function="internal">
        <lane id=":269956910_0_0" index="0" speed="13.90" length="3.47" width="3.50" shape="746.77,595.60 746.50,594.71 745.99,594.12 745.25,593.83 744.28,593.84"/>
    </edge>
    <edge id=":269956910_1" function="internal">
        <lane id=":269956910_1_0" index="0" speed="13.90" length="0.10" width="3.50" shape="746.77,595.60 746.79,595.59"/>
    </edge>
    <edge id=":269956910_2" function="internal">
        <lane id=":269956910_2_0" index="0" speed="13.90" length="2.63" width="3.50" shape="746.77,595.60 747.46,594.13 748.28,593.55"/>
    </edge>
    <edge id=":269956910_6" function="internal">
        <lane id=":269956910_6_0" index="0" speed="13.90" length="2.63" width="3.50" shape="748.28,593.55 749.24,593.86 750.33,595.06"/>
    </edge>
    <edge id=":269956910_3" function="internal">
        <lane id=":269956910_3_0" index="0" speed="13.90" length="0.10" width="3.50" shape="750.35,595.06 750.33,595.06"/>
    </edge>
    <edge id=":269956910_4" function="internal">
        <lane id=":269956910_4_0" index="0" speed="13.90" length="9.28" width="3.50" shape="750.35,595.06 749.61,592.65 748.26,591.05 746.31,590.26 743.75,590.28"/>
    </edge>
    <edge id=":269956910_5" function="internal">
        <lane id=":269956910_5_0" index="0" speed="13.90" length="2.63" width="3.50" shape="750.35,595.06 749.66,596.53 748.84,597.11"/>
    </edge>
    <edge id=":269956910_7" function="internal">
        <lane id=":269956910_7_0" index="0" speed="13.90" length="2.63" width="3.50" shape="748.84,597.11 747.88,596.80 746.79,595.59"/>
    </edge>
    <edge id=":269956911_0" function="internal">
        <lane id=":269956911_0_0" index="0" speed="13.90" length="0.10" width="3.50" shape="713.90,383.98 713.87,383.98"/>
    </edge>
    <edge id=":269956911_1" function="internal">
        <lane id=":269956911_1_0" index="0" speed="13.90" length="2.63" width="3.50" shape="713.90,383.98 714.58,382.50 715.40,381.92"/>
    </edge>
    <edge id=":269956911_6" function="internal">
        <lane id=":269956911_6_0" index="0" speed="13.90" length="2.63" width="3.50" shape="715.40,381.92 716.36,382.23 717.46,383.42"/>
    </edge>
    <edge id=":269956911_2" function="internal">
        <lane id=":269956911_2_0" index="0" speed="13.90" length="0.10" width="3.50" shape="717.43,383.43 717.46,383.42"/>
    </edge>
    <edge id=":269956911_3" function="internal">
        <lane id=":269956911_3_0" index="0" speed="13.90" length="2.63" width="3.50" shape="717.43,383.43 716.75,384.90 715.93,385.48"/>
    </edge>
    <edge id=":269956911_7" function="internal">
        <lane id=":269956911_7_0" index="0" speed="13.90" length="2.63" width="3.50" shape="715.93,385.48 714.97,385.18 713.87,383.98"/>
    </edge>
    <edge id=":269956911_4" function="internal">
        <lane id=":269956911_4_0" index="0" speed="13.90" length="6.80" width="3.50" shape="710.82,378.50 711.83,378.71 712.68,379.69 713.36,381.45 713.87,383.98"/>
    </edge>
    <edge id=":269956911_5" function="internal">
        <lane id=":269956911_5_0" index="0" speed="13.90" length="6.77" width="3.50" shape="711.38,382.05 713.91,381.80 715.76,381.94 716.95,382.48 717.46,383.42"/>
    </edge>
    <edge id=":269986908_0" function="internal">
        <lane id=":269986908_0_0" index="0" speed="13.90" length="13.17" width="3.50" shape="124.35,192.42 123.43,191.82 121.12,191.66 117.43,191.93 112.36,192.65"/>
        <lane id=":269986908_0_1" index="1" speed="13.90" length="13.17" width="3.50" shape="124.35,192.42 123.04,190.29 120.50,189.02 116.75,188.62 111.78,189.09"/>
    </edge>
    <edge id=":269986908_2" function="internal">
        <lane id=":269986908_2_0" index="0" speed="13.90" length="3.73" width="3.50" shape="124.35,192.42 120.59,192.99"/>
        <lane id=":269986908_2_1" index="1" speed="13.90" length="3.73" width="3.50" shape="127.90,191.78 124.29,192.43"/>
    </edge>
    <edge id=":269986908_4" function="internal">
        <lane id=":269986908_4_0" index="0" speed="13.90" length="16.67" width="3.50" shape="127.90,191.78 126.44,187.05 125.27,183.85 124.34,180.60 123.56,175.73"/>
    </edge>
    <edge id=":269986908_5" function="internal">
        <lane id=":269986908_5_0" index="0" speed="13.90" length="19.99" width="3.50" shape="131.98,189.61 112.36,192.65"/>
        <lane id=":269986908_5_1" index="1" speed="13.90" length="19.99" width="3.50" shape="131.49,186.05 111.78,189.09"/>
        <lane id=":269986908_5_2" index="2" speed="13.90" length="19.99" width="3.50" shape="131.00,182.48 111.20,185.54"/>
        <lane id=":269986908_5_3" index="3" speed="13.90" length="19.99" width="3.50" shape="130.51,178.91 110.63,181.99"/>
    </edge>
    <edge id=":269986908_9" function="internal">
        <lane id=":269986908_9_0" index="0" speed="13.90" length="18.37" width="3.50" shape="130.51,178.91 125.76,180.36 123.14,183.09 122.65,187.12 124.29,192.43"/>
    </edge>
    <edge id=":269986908_10" function="internal">
        <lane id=":269986908_10_0" index="0" speed="13.90" length="5.10" width="3.50" shape="130.51,178.91 128.87,178.96 127.76,178.56 127.17,177.73 127.10,176.47"/>
    </edge>
    <edge id=":269987044_0" function="internal">
        <lane id=":269987044_0_0" index="0" speed="13.90" length="6.18" width="3.50" shape="237.87,893.02 237.39,890.82 236.73,889.28 235.89,888.42 234.86,888.23"/>
    </edge>
    <edge id=":269987044_1" function="internal">
        <lane id=":269987044_1_0" index="0" speed="13.90" length="0.13" width="3.50" shape="237.87,893.02 237.74,893.04"/>
    </edge>
    <edge id=":269987044_2" function="internal">
        <lane id=":269987044_2_0" index="0" speed="13.90" length="5.26" width="3.50" shape="237.87,893.02 238.56,891.55 239.38,890.97 240.34,891.28 241.43,892.48"/>
    </edge>
    <edge id=":269987044_3" function="internal">
        <lane id=":269987044_3_0" index="0" speed="13.90" length="5.99" width="3.50" shape="244.91,889.39 243.15,889.20 241.98,889.65 241.41,890.74 241.43,892.48"/>
    </edge>
    <edge id=":269987044_4" function="internal">
        <lane id=":269987044_4_0" index="0" speed="13.90" length="10.90" width="3.50" shape="244.91,889.39 241.97,888.60 239.93,888.11 237.86,887.96 234.86,888.23"/>
        <lane id=":269987044_4_1" index="1" speed="13.90" length="10.90" width="3.50" shape="245.79,885.90 242.46,885.02 240.14,884.48 237.80,884.35 234.40,884.66"/>
    </edge>
    <edge id=":269987044_6" function="internal">
        <lane id=":269987044_6_0" index="0" speed="13.90" length="10.06" width="3.50" shape="245.79,885.90 243.38,885.78 241.83,886.84 241.13,889.08 241.30,892.50"/>
    </edge>
    <edge id=":269987046_0" function="internal">
        <lane id=":269987046_0_0" index="0" speed="13.90" length="0.10" width="3.50" shape="155.65,351.65 155.65,351.65"/>
        <lane id=":269987046_0_1" index="1" speed="13.90" length="0.10" width="3.50" shape="159.21,351.11 159.21,351.11"/>
    </edge>
    <edge id=":269987046_2" function="internal">
        <lane id=":269987046_2_0" index="0" speed="13.90" length="6.83" width="3.50" shape="159.21,351.11 158.96,348.55 159.10,346.67 159.63,345.46 160.53,344.92"/>
    </edge>
    <edge id=":269987046_3" function="internal">
        <lane id=":269987046_3_0" index="0" speed="13.90" length="3.74" width="3.50" shape="161.19,348.46 160.20,348.79 159.54,349.34 159.21,350.11 159.21,351.11"/>
    </edge>
    <edge id=":269987046_4" function="internal">
        <lane id=":269987046_4_0" index="0" speed="13.90" length="5.26" width="3.50" shape="161.19,348.46 159.70,347.82 159.09,347.02 159.37,346.05 160.53,344.92"/>
    </edge>
    <edge id=":269987047_0" function="internal">
        <lane id=":269987047_0_0" index="0" speed="13.90" length="0.10" width="3.50" shape="171.99,459.03 171.93,459.04"/>
        <lane id=":269987047_0_1" index="1" speed="13.90" length="0.10" width="3.50" shape="175.54,458.44 175.49,458.45"/>
    </edge>
    <edge id=":269987047_2" function="internal">
        <lane id=":269987047_2_0" index="0" speed="13.90" length="0.53" width="3.50" shape="175.54,458.44 175.53,457.90"/>
    </edge>
    <edge id=":269987047_6" function="internal">
        <lane id=":269987047_6_0" index="0" speed="13.90" length="3.11" width="3.50" shape="175.53,457.90 175.52,457.44 175.83,456.67 176.46,456.15 177.42,455.87"/>
    </edge>
    <edge id=":269987047_3" function="internal">
        <lane id=":269987047_3_0" index="0" speed="13.90" length="6.80" width="3.50" shape="169.00,453.42 169.95,453.67 170.75,454.69 171.42,456.48 171.93,459.04"/>
    </edge>
    <edge id=":269987047_4" function="internal">
        <lane id=":269987047_4_0" index="0" speed="13.90" length="8.00" width="3.50" shape="169.00,453.42 176.90,452.31"/>
        <lane id=":269987047_4_1" index="1" speed="13.90" length="8.00" width="3.50" shape="169.48,456.99 177.42,455.87"/>
    </edge>
    <edge id=":269987048_0" function="internal">
        <lane id=":269987048_0_0" index="0" speed="13.90" length="0.10" width="3.50" shape="220.90,780.15 220.88,780.16"/>
        <lane id=":269987048_0_1" index="1" speed="13.90" length="0.10" width="3.50" shape="224.46,779.62 224.44,779.62"/>
    </edge>
    <edge id=":269987048_2" function="internal">
        <lane id=":269987048_2_0" index="0" speed="13.90" length="0.54" width="3.50" shape="224.46,779.62 224.46,779.07"/>
    </edge>
    <edge id=":269987048_6" function="internal">
        <lane id=":269987048_6_0" index="0" speed="13.90" length="3.13" width="3.50" shape="224.46,779.07 224.45,778.61 224.77,777.84 225.42,777.32 226.39,777.04"/>
    </edge>
    <edge id=":269987048_3" function="internal">
        <lane id=":269987048_3_0" index="0" speed="13.90" length="6.77" width="3.50" shape="217.97,774.57 218.93,774.81 219.73,775.83 220.38,777.61 220.88,780.16"/>
    </edge>
    <edge id=":269987048_4" function="internal">
        <lane id=":269987048_4_0" index="0" speed="13.90" length="8.00" width="3.50" shape="217.97,774.57 225.88,773.47"/>
        <lane id=":269987048_4_1" index="1" speed="13.90" length="8.00" width="3.50" shape="218.46,778.14 226.39,777.04"/>
    </edge>
    <edge id=":269987745_0" function="internal">
        <lane id=":269987745_0_0" index="0" speed="13.90" length="7.64" width="3.50" shape="431.76,1302.77 432.72,1302.98 433.51,1303.89 434.13,1305.52 434.58,1307.84"/>
        <lane id=":269987745_0_1" index="1" speed="13.90" length="7.64" width="3.50" shape="431.76,1302.77 434.28,1302.76 436.19,1303.52 437.48,1305.06 438.15,1307.37"/>
    </edge>
    <edge id=":269987745_2" function="internal">
        <lane id=":269987745_2_0" index="0" speed="13.90" length="8.01" width="3.50" shape="431.76,1302.77 439.72,1301.71"/>
        <lane id=":269987745_2_1" index="1" speed="13.90" length="8.01" width="3.50" shape="432.26,1306.34 440.17,1305.28"/>
    </edge>
    <edge id=":269988226_0" function="internal">
        <lane id=":269988226_0_0" index="0" speed="13.90" length="0.29" width="3.50" shape="298.98,1321.37 299.26,1321.34"/>
        <lane id=":269988226_0_1" index="1" speed="13.90" length="0.29" width="3.50" shape="299.44,1324.94 299.76,1324.91"/>
    </edge>
    <edge id=":269988227_0" function="internal">
        <lane id=":269988227_0_0" index="0" speed="13.90" length="5.88" width="3.50" shape="848.76,1249.91 848.81,1251.73 848.27,1252.72 847.16,1252.89 845.47,1252.23"/>
    </edge>